
 OpenBabel01051521413D

 78 82  0  0  1  0  0  0  0  0999 V2000
   19.1460   51.3480   37.1330 P   0  0  1  0  0  0  0  0  0  0  0  0
   20.3370   51.1880   36.2660 O   0  0  0  0  0  0  0  0  0  0  0  0
   19.5260   51.3900   38.5650 O   0  0  0  0  0  0  0  0  0  0  0  0
   18.3670   52.6880   36.7160 O   0  0  0  0  0  0  0  0  0  0  0  0
   17.1580   53.0430   37.3410 C   0  0  0  0  0  0  0  0  0  0  0  0
   17.1680   54.5320   37.6560 C   0  0  1  0  0  0  0  0  0  0  0  0
   18.1720   54.8540   38.5990 O   0  0  0  0  0  0  0  0  0  0  0  0
   17.4810   55.4080   36.4540 C   0  0  1  0  0  0  0  0  0  0  0  0
   16.3430   55.6150   35.6530 O   0  0  0  0  0  0  0  0  0  0  0  0
   17.9750   56.6830   37.1020 C   0  0  1  0  0  0  0  0  0  0  0  0
   16.8670   57.4980   37.4040 O   0  0  0  0  0  0  0  0  0  0  0  0
   18.6080   56.1890   38.4020 C   0  0  2  0  0  0  0  0  0  0  0  0
   20.0930   56.2530   38.4180 N   0  0  0  0  0  0  0  0  0  0  0  0
   20.8410   56.3540   39.5640 C   0  0  0  0  0  0  0  0  0  0  0  0
   22.1540   56.3880   39.2400 N   0  0  0  0  0  0  0  0  0  0  0  0
   22.2660   56.3100   37.8960 C   0  0  0  0  0  0  0  0  0  0  0  0
   23.3730   56.3030   37.0480 C   0  0  0  0  0  0  0  0  0  0  0  0
   24.6050   56.3850   37.5440 N   0  0  0  0  0  0  0  0  0  0  0  0
   23.1920   56.2100   35.6820 N   0  0  0  0  0  0  0  0  0  0  0  0
   21.9140   56.1270   35.1630 C   0  0  0  0  0  0  0  0  0  0  0  0
   20.8210   56.1320   36.0110 N   0  0  0  0  0  0  0  0  0  0  0  0
   20.9810   56.2220   37.3610 C   0  0  0  0  0  0  0  0  0  0  0  0
   18.0900   50.1680   36.8350 O   0  0  0  0  0  0  0  0  0  0  0  0
   18.1300   48.9710   35.7550 P   0  0  1  0  0  0  0  0  0  0  0  0
   18.2230   49.5800   34.4130 O   0  0  0  0  0  0  0  0  0  0  0  0
   19.1610   47.9980   36.1910 O   0  0  0  0  0  0  0  0  0  0  0  0
   16.6760   48.2700   35.8520 O   0  0  0  0  0  0  0  0  0  0  0  0
   15.8910   48.3010   37.0220 C   0  0  0  0  0  0  0  0  0  0  0  0
   16.0640   46.9830   37.7670 C   0  0  1  0  0  0  0  0  0  0  0  0
   17.3100   46.9770   38.4460 O   0  0  0  0  0  0  0  0  0  0  0  0
   14.9630   46.7860   38.7970 C   0  0  1  0  0  0  0  0  0  0  0  0
   14.1340   45.7070   38.4180 O   0  0  0  0  0  0  0  0  0  0  0  0
   15.6780   46.5320   40.1170 C   0  0  1  0  0  0  0  0  0  0  0  0
   15.4520   45.2190   40.5840 O   0  0  0  0  0  0  0  0  0  0  0  0
   17.1630   46.7430   39.8380 C   0  0  2  0  0  0  0  0  0  0  0  0
   17.7180   47.8730   40.6250 N   0  0  0  0  0  0  0  0  0  0  0  0
   18.6010   47.6050   41.6430 C   0  0  0  0  0  0  0  0  0  0  0  0
   19.1530   48.6380   42.4050 C   0  0  0  0  0  0  0  0  0  0  0  0
   20.4170   48.3790   43.1760 C   0  0  0  0  0  0  0  0  0  0  0  0
   21.4030   47.5320   42.6260 O   0  0  0  0  0  0  0  0  0  0  0  0
   20.5800   48.9580   44.3660 N   0  0  0  0  0  0  0  0  0  0  0  0
   18.7930   49.9570   42.1240 C   0  0  0  0  0  0  0  0  0  0  0  0
   17.8980   50.2280   41.0900 C   0  0  0  0  0  0  0  0  0  0  0  0
   17.3680   49.1750   40.3460 C   0  0  0  0  0  0  0  0  0  0  0  0
   16.9590   59.1010   37.3360 P   0  0  0  0  0  0  0  0  0  0  0  0
   15.6300   59.6500   37.7900 O   0  0  0  0  0  0  0  0  0  0  0  0
   17.2500   59.5390   35.9240 O   0  0  0  0  0  0  0  0  0  0  0  0
   18.0470   59.5840   38.2630 O   0  0  0  0  0  0  0  0  0  0  0  0
   20.1607   52.1090   38.7101 H   0  0  0  0  0  0  0  0  0  0  0  0
   17.0491   52.4871   38.2488 H   0  0  0  0  0  0  0  0  0  0  0  0
   16.3402   52.8222   36.6873 H   0  0  0  0  0  0  0  0  0  0  0  0
   16.1786   54.7217   38.0164 H   0  0  0  0  0  0  0  0  0  0  0  0
   18.1940   54.9797   35.7809 H   0  0  0  0  0  0  0  0  0  0  0  0
   15.6364   56.0064   36.1901 H   0  0  0  0  0  0  0  0  0  0  0  0
   18.6469   57.2474   36.4897 H   0  0  0  0  0  0  0  0  0  0  0  0
   18.2951   56.8379   39.1932 H   0  0  0  0  0  0  0  0  0  0  0  0
   20.4614   56.3972   40.5227 H   0  0  0  0  0  0  0  0  0  0  0  0
   25.3810   56.3794   36.9381 H   0  0  0  0  0  0  0  0  0  0  0  0
   24.7406   56.4513   38.5169 H   0  0  0  0  0  0  0  0  0  0  0  0
   21.7749   56.0613   34.1425 H   0  0  0  0  0  0  0  0  0  0  0  0
   19.2043   47.2663   35.5556 H   0  0  0  0  0  0  0  0  0  0  0  0
   14.8619   48.4336   36.7607 H   0  0  0  0  0  0  0  0  0  0  0  0
   16.2011   49.1134   37.6454 H   0  0  0  0  0  0  0  0  0  0  0  0
   16.0203   46.1932   37.0465 H   0  0  0  0  0  0  0  0  0  0  0  0
   14.3189   47.6364   38.8806 H   0  0  0  0  0  0  0  0  0  0  0  0
   14.6701   44.9038   38.3271 H   0  0  0  0  0  0  0  0  0  0  0  0
   15.3149   47.1922   40.8767 H   0  0  0  0  0  0  0  0  0  0  0  0
   15.7675   44.5822   39.9238 H   0  0  0  0  0  0  0  0  0  0  0  0
   17.7109   45.8729   40.1340 H   0  0  0  0  0  0  0  0  0  0  0  0
   19.8774   49.5449   44.7282 H   0  0  0  0  0  0  0  0  0  0  0  0
   21.4029   48.7986   44.8824 H   0  0  0  0  0  0  0  0  0  0  0  0
   18.3630   50.3575   43.0182 H   0  0  0  0  0  0  0  0  0  0  0  0
   17.6297   51.2015   40.8769 H   0  0  0  0  0  0  0  0  0  0  0  0
   16.7069   49.3733   39.5787 H   0  0  0  0  0  0  0  0  0  0  0  0
   14.9310   59.3391   37.1936 H   0  0  0  0  0  0  0  0  0  0  0  0
   18.9016   59.2305   37.9704 H   0  0  0  0  0  0  0  0  0  0  0  0
   18.8601   46.6272   41.8477 H   0  0  0  0  0  0  0  0  0  0  0  0
   19.7070   50.3946   41.7805 H   0  0  0  0  0  0  0  0  0  0  0  0
  1  2  2  6  0  0  0
  1  3  1  0  0  0  0
  3 49  1  0  0  0  0
  4  1  1  0  0  0  0
  4  5  1  0  0  0  0
  5  6  1  0  0  0  0
  5 50  1  0  0  0  0
  5 51  1  0  0  0  0
  6  7  1  0  0  0  0
  6 52  1  0  0  0  0
  6  8  1  6  0  0  0
  8 10  1  1  0  0  0
  8 53  1  0  0  0  0
  9  8  1  0  0  0  0
  9 54  1  0  0  0  0
 10 11  1  0  0  0  0
 10 12  1  1  0  0  0
 10 55  1  0  0  0  0
 12 13  1  0  0  0  0
 12  7  1  0  0  0  0
 12 56  1  1  0  0  0
 13 14  1  0  0  0  0
 14 57  1  0  0  0  0
 15 14  2  0  0  0  0
 16 15  1  0  0  0  0
 17 18  1  0  0  0  0
 17 16  2  0  0  0  0
 18 58  1  0  0  0  0
 18 59  1  0  0  0  0
 19 17  1  0  0  0  0
 20 19  2  0  0  0  0
 20 21  1  0  0  0  0
 20 60  1  0  0  0  0
 21 22  2  0  0  0  0
 22 16  1  0  0  0  0
 22 13  1  0  0  0  0
 23  1  1  0  0  0  0
 24 25  2  6  0  0  0
 24 27  1  0  0  0  0
 24 26  1  0  0  0  0
 24 23  1  0  0  0  0
 26 61  1  0  0  0  0
 27 28  1  0  0  0  0
 28 29  1  0  0  0  0
 28 62  1  0  0  0  0
 28 63  1  0  0  0  0
 29 30  1  0  0  0  0
 29 31  1  1  0  0  0
 29 64  1  0  0  0  0
 30 35  1  0  0  0  0
 31 33  1  1  0  0  0
 31 65  1  0  0  0  0
 32 31  1  0  0  0  0
 32 66  1  0  0  0  0
 33 34  1  0  0  0  0
 33 67  1  0  0  0  0
 33 35  1  6  0  0  0
 34 68  1  0  0  0  0
 35 36  1  0  0  0  0
 35 69  1  1  0  0  0
 36 37  1  0  0  0  0
 37 38  2  0  0  0  0
 37 77  1  0  0  0  0
 38 39  1  0  0  0  0
 39 41  1  0  0  0  0
 40 39  2  0  0  0  0
 41 70  1  0  0  0  0
 41 71  1  0  0  0  0
 42 38  1  0  0  0  0
 42 72  1  0  0  0  0
 42 78  1  0  0  0  0
 43 42  1  0  0  0  0
 43 73  1  0  0  0  0
 44 36  1  0  0  0  0
 44 43  2  0  0  0  0
 44 74  1  0  0  0  0
 45 11  1  0  0  0  0
 45 46  1  0  0  0  0
 45 48  1  0  0  0  0
 46 75  1  0  0  0  0
 47 45  2  0  0  0  0
 48 76  1  0  0  0  0
M  END
