nad.pdb
 OpenBabel03101516203D

 44 48  0  0  1  0  0  0  0  0999 V2000
   46.6650   33.0620   21.9120 P   0  0  1  0  0  0  0  0  0  0  0  0
   44.6680   32.1690   23.8350 P   0  0  2  0  0  0  0  0  0  0  0  0
   45.4120   30.8390   16.4750 C   0  0  1  0  0  0  0  0  0  0  0  0
   39.6730   30.6760   24.2660 C   0  0  1  0  0  0  0  0  0  0  0  0
   42.3480   29.7830   12.5180 N   0  0  0  0  0  0  0  0  0  0  0  0
   39.8960   30.9440   25.7000 N   0  0  0  0  0  0  0  0  0  0  0  0
   46.7730   34.3680   21.3140 O   0  5  0  0  0  0  0  0  0  0  0  0
   44.8300   32.9420   25.0700 O   0  5  0  0  0  0  0  0  0  0  0  0
   43.2270   28.9220   13.1730 C   0  0  0  0  0  0  0  0  0  0  0  0
   46.7000   31.6120   16.6860 C   0  0  2  0  0  0  0  0  0  0  0  0
   39.1100   31.8800   23.4690 C   0  0  2  0  0  0  0  0  0  0  0  0
   40.9510   31.7130   26.2250 C   0  0  0  0  0  0  0  0  0  0  0  0
   47.6830   32.5090   22.8500 O   0  0  0  0  0  0  0  0  0  0  0  0
   47.6060   31.3700   15.6170 O   0  0  0  0  0  0  0  0  0  0  0  0
   38.1440   31.4830   22.5050 O   0  0  0  0  0  0  0  0  0  0  0  0
   45.2970   30.8470   23.7680 O   0  0  0  0  0  0  0  0  0  0  0  0
   47.1730   31.0230   18.0230 C   0  0  2  0  0  0  0  0  0  0  0  0
   40.3430   32.4650   22.8090 C   0  0  2  0  0  0  0  0  0  0  0  0
   40.9650   31.9460   27.5760 C   0  0  0  0  0  0  0  0  0  0  0  0
   44.0150   29.3470   14.2360 N   0  0  0  0  0  0  0  0  0  0  0  0
   45.2360   33.0300   22.6020 O   0  0  0  0  0  0  0  0  0  0  0  0
   47.7080   29.6920   17.9070 O   0  0  0  0  0  0  0  0  0  0  0  0
   40.1260   33.2190   21.6220 O   0  0  0  0  0  0  0  0  0  0  0  0
   43.8720   30.6950   14.5770 C   0  0  0  0  0  0  0  0  0  0  0  0
   45.8410   30.8890   18.8430 C   0  0  2  0  0  0  0  0  0  0  0  0
   41.2520   31.2070   22.5630 C   0  0  2  0  0  0  0  0  0  0  0  0
   39.8960   31.4250   28.4550 C   0  0  0  0  0  0  0  0  0  0  0  0
   44.8150   30.8640   17.7660 O   0  0  0  0  0  0  0  0  0  0  0  0
   40.9100   30.2780   23.6120 O   0  0  0  0  0  0  0  0  0  0  0  0
   43.0270   31.5700   13.9460 C   0  0  0  0  0  0  0  0  0  0  0  0
   45.4870   32.0790   19.7580 C   0  0  0  0  0  0  0  0  0  0  0  0
   42.6930   31.4120   22.3890 C   0  0  0  0  0  0  0  0  0  0  0  0
   38.8680   30.6210   27.8750 C   0  0  0  0  0  0  0  0  0  0  0  0
   46.5250   31.9470   20.7780 O   0  0  0  0  0  0  0  0  0  0  0  0
   43.1200   32.1330   23.5370 O   0  0  0  0  0  0  0  0  0  0  0  0
   42.2270   31.1140   12.8920 C   0  0  0  0  0  0  0  0  0  0  0  0
   38.8440   30.3630   26.4750 C   0  0  0  0  0  0  0  0  0  0  0  0
   41.3480   31.8450   12.2050 N   0  0  0  0  0  0  0  0  0  0  0  0
   42.0930   32.8170   28.1610 C   0  0  0  0  0  0  0  0  0  0  0  0
   43.1090   32.8400   14.4970 N   0  0  0  0  0  0  0  0  0  0  0  0
   43.1010   33.2230   27.4180 N   0  0  0  0  0  0  0  0  0  0  0  0
   41.9680   33.1800   29.3400 O   0  0  0  0  0  0  0  0  0  0  0  0
   43.9910   32.7130   15.4620 C   0  0  0  0  0  0  0  0  0  0  0  0
   44.4830   31.4270   15.5630 N   0  0  0  0  0  0  0  0  0  0  0  0
  1 34  1  6  0  0  0
  1 21  1  0  0  0  0
  1 13  1  0  0  0  0
  2 21  1  6  0  0  0
  2  8  1  0  0  0  0
  3 44  1  6  0  0  0
  3 10  1  0  0  0  0
  3 28  1  0  0  0  0
  4  6  1  1  0  0  0
  5 36  2  0  0  0  0
  5  9  1  0  0  0  0
  6 12  1  0  0  0  0
  6 37  1  0  0  0  0
  7  1  2  0  0  0  0
  9 20  2  0  0  0  0
 10 14  1  6  0  0  0
 10 17  1  0  0  0  0
 11 15  1  6  0  0  0
 11  4  1  0  0  0  0
 12 19  2  0  0  0  0
 16  2  2  0  0  0  0
 17 22  1  6  0  0  0
 17 25  1  0  0  0  0
 18 23  1  6  0  0  0
 18 11  1  0  0  0  0
 19 39  1  0  0  0  0
 19 27  1  0  0  0  0
 20 24  1  0  0  0  0
 24 44  1  0  0  0  0
 25 31  1  1  0  0  0
 26 32  1  1  0  0  0
 26 18  1  0  0  0  0
 26 29  1  0  0  0  0
 28 25  1  0  0  0  0
 29  4  1  0  0  0  0
 30 40  1  0  0  0  0
 30 24  2  0  0  0  0
 31 34  1  0  0  0  0
 32 35  1  0  0  0  0
 33 27  1  0  0  0  0
 35  2  1  0  0  0  0
 36 30  1  0  0  0  0
 37 33  2  0  0  0  0
 38 36  1  0  0  0  0
 39 42  2  0  0  0  0
 40 43  2  0  0  0  0
 41 39  1  0  0  0  0
 43 44  1  0  0  0  0
M  CHG  2   7  -1   8  -1
M  END
