
 OpenBabel01051522093D

 78 82  0  0  1  0  0  0  0  0999 V2000
   -6.5930   -7.9320   -2.4830 P   0  0  2  0  0  0  0  0  0  0  0  0
   -6.2400   -9.3160   -2.0940 O   0  0  0  0  0  0  0  0  0  0  0  0
   -7.0270   -7.0260   -1.3930 O   0  0  0  0  0  0  0  0  0  0  0  0
   -7.7060   -7.9800   -3.6450 O   0  0  0  0  0  0  0  0  0  0  0  0
   -7.5860   -8.7250   -4.8440 C   0  0  0  0  0  0  0  0  0  0  0  0
   -8.9470   -9.3580   -5.0590 C   0  0  1  0  0  0  0  0  0  0  0  0
   -9.0630   -9.9520   -6.3380 O   0  0  0  0  0  0  0  0  0  0  0  0
   -9.1470  -10.5150   -4.0840 C   0  0  1  0  0  0  0  0  0  0  0  0
   -9.6010  -10.0910   -2.8230 O   0  0  0  0  0  0  0  0  0  0  0  0
  -10.1810  -11.3590   -4.7920 C   0  0  1  0  0  0  0  0  0  0  0  0
  -11.4640  -11.0870   -4.2690 O   0  0  0  0  0  0  0  0  0  0  0  0
  -10.1190  -10.8860   -6.2410 C   0  0  2  0  0  0  0  0  0  0  0  0
   -9.8430  -11.9870   -7.1770 N   0  0  0  0  0  0  0  0  0  0  0  0
   -9.0110  -13.0680   -6.9940 C   0  0  0  0  0  0  0  0  0  0  0  0
   -9.0580  -13.8220   -8.1160 N   0  0  0  0  0  0  0  0  0  0  0  0
   -9.9120  -13.2400   -8.9940 C   0  0  0  0  0  0  0  0  0  0  0  0
  -10.3260  -13.5620  -10.2890 C   0  0  0  0  0  0  0  0  0  0  0  0
   -9.7150  -14.5520  -10.9300 N   0  0  0  0  0  0  0  0  0  0  0  0
  -11.2120  -12.7430  -10.9730 N   0  0  0  0  0  0  0  0  0  0  0  0
  -11.7140  -11.5950  -10.3740 C   0  0  0  0  0  0  0  0  0  0  0  0
  -11.2870  -11.2840   -9.0980 N   0  0  0  0  0  0  0  0  0  0  0  0
  -10.4030  -12.0720   -8.4240 C   0  0  0  0  0  0  0  0  0  0  0  0
   -5.3290   -7.2950   -3.2260 O   0  0  0  0  0  0  0  0  0  0  0  0
   -5.1720   -5.7130   -3.4410 P   0  0  2  0  0  0  0  0  0  0  0  0
   -4.3490   -5.1980   -2.3280 O   0  0  0  0  0  0  0  0  0  0  0  0
   -6.4310   -5.0560   -3.7120 O   0  0  0  0  0  0  0  0  0  0  0  0
   -4.2450   -5.7250   -4.7390 O   0  0  0  0  0  0  0  0  0  0  0  0
   -4.5720   -6.4410   -5.8940 C   0  0  0  0  0  0  0  0  0  0  0  0
   -3.9930   -5.6130   -7.0440 C   0  0  1  0  0  0  0  0  0  0  0  0
   -3.8570   -4.2600   -6.6120 O   0  0  0  0  0  0  0  0  0  0  0  0
   -2.5990   -6.1040   -7.4510 C   0  0  1  0  0  0  0  0  0  0  0  0
   -2.4240   -5.9240   -8.8440 O   0  0  0  0  0  0  0  0  0  0  0  0
   -1.6880   -5.1750   -6.6770 C   0  0  1  0  0  0  0  0  0  0  0  0
   -0.3630   -5.0590   -7.2070 O   0  0  0  0  0  0  0  0  0  0  0  0
   -2.4960   -3.8710   -6.6930 C   0  0  2  0  0  0  0  0  0  0  0  0
   -2.1780   -2.9590   -5.5800 N   0  0  0  0  0  0  0  0  0  0  0  0
   -2.3690   -3.3500   -4.2840 C   0  0  0  0  0  0  0  0  0  0  0  0
   -2.0680   -2.4660   -3.2520 C   0  0  0  0  0  0  0  0  0  0  0  0
   -2.4210   -2.8380   -1.8460 C   0  0  0  0  0  0  0  0  0  0  0  0
   -1.6950   -2.2510   -0.8020 O   0  0  0  0  0  0  0  0  0  0  0  0
   -3.4190   -3.6870   -1.6440 N   0  0  0  0  0  0  0  0  0  0  0  0
   -1.5850   -1.1910   -3.5400 C   0  0  0  0  0  0  0  0  0  0  0  0
   -1.4070   -0.8000   -4.8530 C   0  0  0  0  0  0  0  0  0  0  0  0
   -1.7240   -1.7020   -5.8860 C   0  0  0  0  0  0  0  0  0  0  0  0
  -12.5470  -12.2270   -3.8660 P   0  0  0  0  0  0  0  0  0  0  0  0
  -12.9660  -11.8580   -2.4580 O   0  0  0  0  0  0  0  0  0  0  0  0
  -13.8040  -12.1800   -4.7470 O   0  0  0  0  0  0  0  0  0  0  0  0
  -11.9210  -13.6070   -3.8950 O   0  0  0  0  0  0  0  0  0  0  0  0
   -7.2314   -6.1521   -1.7610 H   0  0  0  0  0  0  0  0  0  0  0  0
   -7.3385   -8.0813   -5.6621 H   0  0  0  0  0  0  0  0  0  0  0  0
   -6.8098   -9.4589   -4.7819 H   0  0  0  0  0  0  0  0  0  0  0  0
   -9.6577   -8.5685   -4.9310 H   0  0  0  0  0  0  0  0  0  0  0  0
   -8.2377  -11.0350   -3.8657 H   0  0  0  0  0  0  0  0  0  0  0  0
  -10.4332   -9.6035   -2.9261 H   0  0  0  0  0  0  0  0  0  0  0  0
   -9.9995  -12.4078   -4.6825 H   0  0  0  0  0  0  0  0  0  0  0  0
  -11.0675  -10.4644   -6.5009 H   0  0  0  0  0  0  0  0  0  0  0  0
   -8.4508  -13.2678   -6.1506 H   0  0  0  0  0  0  0  0  0  0  0  0
   -9.9932  -14.7930  -11.8431 H   0  0  0  0  0  0  0  0  0  0  0  0
   -8.9839  -15.0448  -10.4920 H   0  0  0  0  0  0  0  0  0  0  0  0
  -12.3881  -10.9905  -10.8692 H   0  0  0  0  0  0  0  0  0  0  0  0
   -4.2338   -4.2400   -2.4274 H   0  0  0  0  0  0  0  0  0  0  0  0
   -4.1303   -7.4153   -5.8713 H   0  0  0  0  0  0  0  0  0  0  0  0
   -5.6272   -6.5878   -5.9932 H   0  0  0  0  0  0  0  0  0  0  0  0
   -4.6561   -5.7052   -7.8787 H   0  0  0  0  0  0  0  0  0  0  0  0
   -2.4195   -7.1392   -7.2487 H   0  0  0  0  0  0  0  0  0  0  0  0
   -2.5783   -4.9938   -9.0717 H   0  0  0  0  0  0  0  0  0  0  0  0
   -1.4636   -5.5258   -5.6913 H   0  0  0  0  0  0  0  0  0  0  0  0
   -0.4076   -4.7414   -8.1225 H   0  0  0  0  0  0  0  0  0  0  0  0
   -2.2609   -3.3246   -7.5824 H   0  0  0  0  0  0  0  0  0  0  0  0
   -2.7331   -4.2922   -4.0728 H   0  0  0  0  0  0  0  0  0  0  0  0
   -3.8995   -4.0735   -2.4115 H   0  0  0  0  0  0  0  0  0  0  0  0
   -3.6797   -3.9310   -0.7265 H   0  0  0  0  0  0  0  0  0  0  0  0
   -2.2687   -0.4951   -3.1005 H   0  0  0  0  0  0  0  0  0  0  0  0
   -1.0462    0.1414   -5.0736 H   0  0  0  0  0  0  0  0  0  0  0  0
   -1.6149   -1.4177   -6.8720 H   0  0  0  0  0  0  0  0  0  0  0  0
  -13.3636  -10.9732   -2.4604 H   0  0  0  0  0  0  0  0  0  0  0  0
  -11.6599  -13.8246   -4.8035 H   0  0  0  0  0  0  0  0  0  0  0  0
   -0.5879   -1.2125   -3.1524 H   0  0  0  0  0  0  0  0  0  0  0  0
  1  4  1  0  0  0  0
  1  2  2  1  0  0  0
  1  3  1  0  0  0  0
  3 49  1  0  0  0  0
  5  4  1  0  0  0  0
  5 50  1  0  0  0  0
  5 51  1  0  0  0  0
  6  5  1  0  0  0  0
  6  8  1  1  0  0  0
  6 52  1  0  0  0  0
  7 12  1  0  0  0  0
  7  6  1  0  0  0  0
  8  9  1  0  0  0  0
  8 53  1  0  0  0  0
  8 10  1  6  0  0  0
  9 54  1  0  0  0  0
 10 11  1  0  0  0  0
 10 55  1  0  0  0  0
 10 12  1  6  0  0  0
 11 45  1  0  0  0  0
 12 56  1  6  0  0  0
 13 14  1  0  0  0  0
 13 12  1  0  0  0  0
 14 57  1  0  0  0  0
 15 14  2  0  0  0  0
 16 22  1  0  0  0  0
 16 15  1  0  0  0  0
 17 16  2  0  0  0  0
 18 17  1  0  0  0  0
 18 58  1  0  0  0  0
 18 59  1  0  0  0  0
 19 20  2  0  0  0  0
 19 17  1  0  0  0  0
 20 21  1  0  0  0  0
 20 60  1  0  0  0  0
 21 22  2  0  0  0  0
 22 13  1  0  0  0  0
 23  1  1  0  0  0  0
 24 27  1  0  0  0  0
 24 23  1  0  0  0  0
 24 25  1  0  0  0  0
 24 26  2  6  0  0  0
 25 61  1  0  0  0  0
 28 27  1  0  0  0  0
 28 62  1  0  0  0  0
 28 63  1  0  0  0  0
 29 30  1  0  0  0  0
 29 28  1  0  0  0  0
 29 64  1  0  0  0  0
 29 31  1  6  0  0  0
 31 33  1  1  0  0  0
 31 65  1  0  0  0  0
 32 31  1  0  0  0  0
 32 66  1  0  0  0  0
 33 67  1  0  0  0  0
 33 35  1  1  0  0  0
 34 33  1  0  0  0  0
 34 68  1  0  0  0  0
 35 30  1  0  0  0  0
 35 36  1  0  0  0  0
 35 69  1  6  0  0  0
 36 37  1  0  0  0  0
 37 38  2  0  0  0  0
 37 70  1  0  0  0  0
 38 39  1  0  0  0  0
 39 41  1  0  0  0  0
 39 40  2  0  0  0  0
 41 71  1  0  0  0  0
 41 72  1  0  0  0  0
 42 38  1  0  0  0  0
 42 73  1  0  0  0  0
 42 78  1  0  0  0  0
 43 42  1  0  0  0  0
 43 74  1  0  0  0  0
 44 36  1  0  0  0  0
 44 43  2  0  0  0  0
 44 75  1  0  0  0  0
 45 46  1  0  0  0  0
 46 76  1  0  0  0  0
 47 45  2  0  0  0  0
 48 45  1  0  0  0  0
 48 77  1  0  0  0  0
M  END
