
 OpenBabel01051521443D

 73 77  0  0  1  0  0  0  0  0999 V2000
   52.7520    0.1560    5.2340 P   0  0  2  0  0  0  0  0  0  0  0  0
   51.8030   -0.8630    4.6510 O   0  0  0  0  0  0  0  0  0  0  0  0
   53.8230    0.8070    4.3820 O   0  0  0  0  0  0  0  0  0  0  0  0
   53.4810   -0.4270    6.5390 O   0  0  0  0  0  0  0  0  0  0  0  0
   52.7570   -1.1640    7.5110 C   0  0  0  0  0  0  0  0  0  0  0  0
   53.7530   -1.7400    8.5130 C   0  0  1  0  0  0  0  0  0  0  0  0
   53.0370   -2.6070    9.4050 O   0  0  0  0  0  0  0  0  0  0  0  0
   54.8350   -2.5830    7.8460 C   0  0  1  0  0  0  0  0  0  0  0  0
   56.0470   -2.4190    8.5980 O   0  0  0  0  0  0  0  0  0  0  0  0
   54.2680   -3.9770    7.9920 C   0  0  1  0  0  0  0  0  0  0  0  0
   55.2340   -5.0230    7.8930 O   0  0  0  0  0  0  0  0  0  0  0  0
   53.6310   -3.8990    9.3680 C   0  0  2  0  0  0  0  0  0  0  0  0
   52.7000   -5.0210    9.5740 N   0  0  0  0  0  0  0  0  0  0  0  0
   51.5580   -5.2810    8.9170 C   0  0  0  0  0  0  0  0  0  0  0  0
   51.0350   -6.4270    9.4110 N   0  0  0  0  0  0  0  0  0  0  0  0
   51.8620   -6.8710   10.3850 C   0  0  0  0  0  0  0  0  0  0  0  0
   51.8440   -7.9760   11.2320 C   0  0  0  0  0  0  0  0  0  0  0  0
   50.8310   -8.8660   11.1650 N   0  0  0  0  0  0  0  0  0  0  0  0
   52.8500   -8.1480   12.1250 N   0  0  0  0  0  0  0  0  0  0  0  0
   53.8590   -7.2600   12.1940 C   0  0  0  0  0  0  0  0  0  0  0  0
   53.9080   -6.1840   11.3910 N   0  0  0  0  0  0  0  0  0  0  0  0
   52.9100   -5.9770   10.4790 C   0  0  0  0  0  0  0  0  0  0  0  0
   51.8450    1.3470    5.8450 O   0  0  0  0  0  0  0  0  0  0  0  0
   52.2660    2.7180    6.5730 P   0  0  2  0  0  0  0  0  0  0  0  0
   51.4960    3.8480    5.9560 O   0  0  0  0  0  0  0  0  0  0  0  0
   53.7640    2.8180    6.7220 O   0  0  0  0  0  0  0  0  0  0  0  0
   51.5840    2.4410    8.0090 O   0  0  0  0  0  0  0  0  0  0  0  0
   52.3310    2.3400    9.2240 C   0  0  0  0  0  0  0  0  0  0  0  0
   51.3960    2.6370   10.3990 C   0  0  1  0  0  0  0  0  0  0  0  0
   50.9120    3.9850   10.2760 O   0  0  0  0  0  0  0  0  0  0  0  0
   50.1680    1.7280   10.4000 C   0  0  1  0  0  0  0  0  0  0  0  0
   49.8040    1.3140   11.7390 O   0  0  0  0  0  0  0  0  0  0  0  0
   49.0780    2.5980    9.7870 C   0  0  1  0  0  0  0  0  0  0  0  0
   47.7790    2.1670   10.1970 O   0  0  0  0  0  0  0  0  0  0  0  0
   49.4780    3.9790   10.2920 C   0  0  2  0  0  0  0  0  0  0  0  0
   48.9540    5.1340    9.5650 N   0  0  0  0  0  0  0  0  0  0  0  0
   49.2120    5.3470    8.2530 C   0  0  0  0  0  0  0  0  0  0  0  0
   48.6960    6.4870    7.6140 C   0  0  0  0  0  0  0  0  0  0  0  0
   48.9430    6.7700    6.1470 C   0  0  0  0  0  0  0  0  0  0  0  0
   48.3120    7.6680    5.6030 O   0  0  0  0  0  0  0  0  0  0  0  0
   49.8480    6.0560    5.4780 N   0  0  0  0  0  0  0  0  0  0  0  0
   47.9310    7.3930    8.3540 C   0  0  0  0  0  0  0  0  0  0  0  0
   47.7050    7.1440    9.7060 C   0  0  0  0  0  0  0  0  0  0  0  0
   48.2340    5.9960   10.2960 C   0  0  0  0  0  0  0  0  0  0  0  0
   51.3733   -0.4919    3.8645 H   0  0  0  0  0  0  0  0  0  0  0  0
   52.2199   -1.9587    7.0368 H   0  0  0  0  0  0  0  0  0  0  0  0
   52.0566   -0.5278    8.0106 H   0  0  0  0  0  0  0  0  0  0  0  0
   54.2201   -0.9169    9.0122 H   0  0  0  0  0  0  0  0  0  0  0  0
   55.0657   -2.3381    6.8303 H   0  0  0  0  0  0  0  0  0  0  0  0
   55.8809   -2.6323    9.5296 H   0  0  0  0  0  0  0  0  0  0  0  0
   53.5934   -4.2336    7.2021 H   0  0  0  0  0  0  0  0  0  0  0  0
   55.9151   -4.8995    8.5725 H   0  0  0  0  0  0  0  0  0  0  0  0
   54.3213   -4.0029   10.1789 H   0  0  0  0  0  0  0  0  0  0  0  0
   51.1493   -4.7054    8.1643 H   0  0  0  0  0  0  0  0  0  0  0  0
   50.1035   -8.7357   10.5146 H   0  0  0  0  0  0  0  0  0  0  0  0
   50.8198   -9.6453   11.7665 H   0  0  0  0  0  0  0  0  0  0  0  0
   54.6143   -7.4094   12.8812 H   0  0  0  0  0  0  0  0  0  0  0  0
   54.1648    2.9844    5.8545 H   0  0  0  0  0  0  0  0  0  0  0  0
   53.1331    3.0481    9.2138 H   0  0  0  0  0  0  0  0  0  0  0  0
   52.7387    1.3555    9.3214 H   0  0  0  0  0  0  0  0  0  0  0  0
   51.9545    2.4801   11.2981 H   0  0  0  0  0  0  0  0  0  0  0  0
   50.3365    0.8190    9.8612 H   0  0  0  0  0  0  0  0  0  0  0  0
   49.6360    2.0977   12.2853 H   0  0  0  0  0  0  0  0  0  0  0  0
   49.0061    2.5630    8.7200 H   0  0  0  0  0  0  0  0  0  0  0  0
   47.7312    2.1609   11.1658 H   0  0  0  0  0  0  0  0  0  0  0  0
   49.0411    4.1081   11.2602 H   0  0  0  0  0  0  0  0  0  0  0  0
   49.7867    4.6731    7.7232 H   0  0  0  0  0  0  0  0  0  0  0  0
   50.0110    6.2374    4.5242 H   0  0  0  0  0  0  0  0  0  0  0  0
   50.3535    5.3472    5.9376 H   0  0  0  0  0  0  0  0  0  0  0  0
   46.9725    7.4519    7.8821 H   0  0  0  0  0  0  0  0  0  0  0  0
   47.1484    7.8062   10.2688 H   0  0  0  0  0  0  0  0  0  0  0  0
   48.0705    5.8101   11.2979 H   0  0  0  0  0  0  0  0  0  0  0  0
   48.5214    8.2854    8.3540 H   0  0  0  0  0  0  0  0  0  0  0  0
  1  3  2  6  0  0  0
  1 23  1  0  0  0  0
  1  4  1  0  0  0  0
  2  1  1  0  0  0  0
  2 45  1  0  0  0  0
  4  5  1  0  0  0  0
  5  6  1  0  0  0  0
  5 46  1  0  0  0  0
  5 47  1  0  0  0  0
  6  7  1  0  0  0  0
  6 48  1  0  0  0  0
  6  8  1  6  0  0  0
  8 10  1  1  0  0  0
  8  9  1  0  0  0  0
  8 49  1  0  0  0  0
  9 50  1  0  0  0  0
 10 12  1  1  0  0  0
 10 51  1  0  0  0  0
 11 10  1  0  0  0  0
 11 52  1  0  0  0  0
 12  7  1  0  0  0  0
 12 13  1  0  0  0  0
 12 53  1  1  0  0  0
 13 22  1  0  0  0  0
 14 15  2  0  0  0  0
 14 13  1  0  0  0  0
 14 54  1  0  0  0  0
 15 16  1  0  0  0  0
 16 22  2  0  0  0  0
 16 17  1  0  0  0  0
 17 19  2  0  0  0  0
 18 17  1  0  0  0  0
 18 55  1  0  0  0  0
 18 56  1  0  0  0  0
 19 20  1  0  0  0  0
 20 57  1  0  0  0  0
 21 20  2  0  0  0  0
 22 21  1  0  0  0  0
 24 23  1  0  0  0  0
 24 26  1  0  0  0  0
 24 27  1  0  0  0  0
 24 25  2  6  0  0  0
 26 58  1  0  0  0  0
 27 28  1  0  0  0  0
 28 29  1  0  0  0  0
 28 59  1  0  0  0  0
 28 60  1  0  0  0  0
 29 31  1  6  0  0  0
 29 61  1  0  0  0  0
 30 35  1  0  0  0  0
 30 29  1  0  0  0  0
 31 32  1  0  0  0  0
 31 62  1  0  0  0  0
 31 33  1  6  0  0  0
 32 63  1  0  0  0  0
 33 34  1  0  0  0  0
 33 35  1  1  0  0  0
 33 64  1  0  0  0  0
 34 65  1  0  0  0  0
 35 66  1  1  0  0  0
 36 35  1  0  0  0  0
 36 44  1  0  0  0  0
 37 36  1  0  0  0  0
 37 67  1  0  0  0  0
 38 37  2  0  0  0  0
 38 42  1  0  0  0  0
 39 38  1  0  0  0  0
 40 39  2  0  0  0  0
 41 39  1  0  0  0  0
 41 68  1  0  0  0  0
 41 69  1  0  0  0  0
 42 43  1  0  0  0  0
 42 70  1  0  0  0  0
 42 73  1  0  0  0  0
 43 44  2  0  0  0  0
 43 71  1  0  0  0  0
 44 72  1  0  0  0  0
M  END
