
 OpenBabel01051521363D

 73 77  0  0  1  0  0  0  0  0999 V2000
   32.6370   16.8400   62.2080 P   0  0  2  0  0  0  0  0  0  0  0  0
   32.9070   15.4820   61.6540 O   0  0  0  0  0  0  0  0  0  0  0  0
   33.1550   16.9980   63.6430 O   0  0  0  0  0  0  0  0  0  0  0  0
   31.1380   17.1680   62.1270 O   0  0  0  0  0  0  0  0  0  0  0  0
   30.0770   16.4620   62.8960 C   0  0  0  0  0  0  0  0  0  0  0  0
   28.7210   16.8630   62.4580 C   0  0  1  0  0  0  0  0  0  0  0  0
   28.5980   18.3260   62.3520 O   0  0  0  0  0  0  0  0  0  0  0  0
   28.1990   16.3360   61.0570 C   0  0  1  0  0  0  0  0  0  0  0  0
   26.7980   15.8990   61.1930 O   0  0  0  0  0  0  0  0  0  0  0  0
   28.3650   17.4800   60.1060 C   0  0  1  0  0  0  0  0  0  0  0  0
   27.6420   17.4480   58.9360 O   0  0  0  0  0  0  0  0  0  0  0  0
   28.0750   18.6380   61.1180 C   0  0  2  0  0  0  0  0  0  0  0  0
   28.6670   19.8900   60.7570 N   0  0  0  0  0  0  0  0  0  0  0  0
   29.9840   20.2490   60.5500 C   0  0  0  0  0  0  0  0  0  0  0  0
   30.1770   21.5080   60.2260 N   0  0  0  0  0  0  0  0  0  0  0  0
   28.9280   22.0780   60.2000 C   0  0  0  0  0  0  0  0  0  0  0  0
   28.4760   23.5040   59.8950 C   0  0  0  0  0  0  0  0  0  0  0  0
   29.2590   24.5080   59.5820 N   0  0  0  0  0  0  0  0  0  0  0  0
   27.0600   23.6690   59.9830 N   0  0  0  0  0  0  0  0  0  0  0  0
   26.1730   22.7230   60.2910 C   0  0  0  0  0  0  0  0  0  0  0  0
   26.5700   21.3770   60.5820 N   0  0  0  0  0  0  0  0  0  0  0  0
   27.9800   21.0950   60.5240 C   0  0  0  0  0  0  0  0  0  0  0  0
   33.4580   17.7760   61.2570 O   0  0  0  0  0  0  0  0  0  0  0  0
   33.2590   18.2940   59.7270 P   0  0  2  0  0  0  0  0  0  0  0  0
   31.9850   17.9460   59.1640 O   0  0  0  0  0  0  0  0  0  0  0  0
   34.4490   17.6510   59.1480 O   0  0  0  0  0  0  0  0  0  0  0  0
   33.6370   19.7990   59.5330 O   0  0  0  0  0  0  0  0  0  0  0  0
   34.4550   20.5700   60.3770 C   0  0  0  0  0  0  0  0  0  0  0  0
   34.8570   21.8210   59.7060 C   0  0  1  0  0  0  0  0  0  0  0  0
   34.4680   21.7330   58.2140 O   0  0  0  0  0  0  0  0  0  0  0  0
   34.0010   23.0550   60.1500 C   0  0  1  0  0  0  0  0  0  0  0  0
   34.8290   24.1120   60.0940 O   0  0  0  0  0  0  0  0  0  0  0  0
   32.8160   23.0800   59.1480 C   0  0  1  0  0  0  0  0  0  0  0  0
   32.1490   24.2820   59.1310 O   0  0  0  0  0  0  0  0  0  0  0  0
   33.5650   22.7470   57.8820 C   0  0  2  0  0  0  0  0  0  0  0  0
   32.7410   22.2660   56.7030 N   0  0  0  0  0  0  0  0  0  0  0  0
   32.1650   20.9590   56.6720 C   0  0  0  0  0  0  0  0  0  0  0  0
   31.4560   20.7000   55.5130 C   0  0  0  0  0  0  0  0  0  0  0  0
   30.8270   19.2130   55.5320 C   0  0  0  0  0  0  0  0  0  0  0  0
   30.1600   18.8600   54.5330 O   0  0  0  0  0  0  0  0  0  0  0  0
   31.0630   18.4090   56.6560 N   0  0  0  0  0  0  0  0  0  0  0  0
   31.2710   21.5910   54.4140 C   0  0  0  0  0  0  0  0  0  0  0  0
   31.9100   22.8800   54.5830 C   0  0  0  0  0  0  0  0  0  0  0  0
   32.6390   23.2190   55.7150 C   0  0  0  0  0  0  0  0  0  0  0  0
   34.1012   16.7864   63.6703 H   0  0  0  0  0  0  0  0  0  0  0  0
   30.1886   16.6952   63.9343 H   0  0  0  0  0  0  0  0  0  0  0  0
   30.1849   15.4115   62.7238 H   0  0  0  0  0  0  0  0  0  0  0  0
   28.1340   16.4073   63.2279 H   0  0  0  0  0  0  0  0  0  0  0  0
   28.7406   15.4869   60.6955 H   0  0  0  0  0  0  0  0  0  0  0  0
   26.2596   16.6365   61.5201 H   0  0  0  0  0  0  0  0  0  0  0  0
   29.3111   17.5348   59.6092 H   0  0  0  0  0  0  0  0  0  0  0  0
   26.6956   17.3951   59.1421 H   0  0  0  0  0  0  0  0  0  0  0  0
   27.0097   18.7380   61.1203 H   0  0  0  0  0  0  0  0  0  0  0  0
   30.7614   19.5767   60.6431 H   0  0  0  0  0  0  0  0  0  0  0  0
   28.8731   25.3955   59.4015 H   0  0  0  0  0  0  0  0  0  0  0  0
   30.2329   24.3743   59.5275 H   0  0  0  0  0  0  0  0  0  0  0  0
   25.1707   22.9670   60.3208 H   0  0  0  0  0  0  0  0  0  0  0  0
   31.9303   18.2820   58.2557 H   0  0  0  0  0  0  0  0  0  0  0  0
   35.3304   20.0082   60.6281 H   0  0  0  0  0  0  0  0  0  0  0  0
   33.9061   20.8135   61.2626 H   0  0  0  0  0  0  0  0  0  0  0  0
   35.8977   21.9346   59.9273 H   0  0  0  0  0  0  0  0  0  0  0  0
   33.5941   23.0400   61.1395 H   0  0  0  0  0  0  0  0  0  0  0  0
   35.2241   24.1667   59.2098 H   0  0  0  0  0  0  0  0  0  0  0  0
   32.0065   22.4142   59.3634 H   0  0  0  0  0  0  0  0  0  0  0  0
   32.7764   24.9973   58.9420 H   0  0  0  0  0  0  0  0  0  0  0  0
   34.0044   23.6636   57.5478 H   0  0  0  0  0  0  0  0  0  0  0  0
   32.2678   20.2757   57.4385 H   0  0  0  0  0  0  0  0  0  0  0  0
   30.6923   17.4978   56.6961 H   0  0  0  0  0  0  0  0  0  0  0  0
   31.5994   18.7556   57.4052 H   0  0  0  0  0  0  0  0  0  0  0  0
   31.6726   21.1295   53.5361 H   0  0  0  0  0  0  0  0  0  0  0  0
   31.8193   23.5777   53.8280 H   0  0  0  0  0  0  0  0  0  0  0  0
   33.0848   24.1448   55.8114 H   0  0  0  0  0  0  0  0  0  0  0  0
   30.2196   21.7754   54.3402 H   0  0  0  0  0  0  0  0  0  0  0  0
  1 23  1  0  0  0  0
  1  3  1  0  0  0  0
  1  2  2  6  0  0  0
  3 45  1  0  0  0  0
  4  1  1  0  0  0  0
  4  5  1  0  0  0  0
  5 46  1  0  0  0  0
  5 47  1  0  0  0  0
  6  5  1  0  0  0  0
  6 48  1  0  0  0  0
  6  8  1  6  0  0  0
  7  6  1  0  0  0  0
  8  9  1  0  0  0  0
  8 49  1  0  0  0  0
  8 10  1  6  0  0  0
  9 50  1  0  0  0  0
 10 12  1  1  0  0  0
 10 51  1  0  0  0  0
 11 10  1  0  0  0  0
 11 52  1  0  0  0  0
 12  7  1  0  0  0  0
 12 53  1  1  0  0  0
 13 12  1  0  0  0  0
 14 13  1  0  0  0  0
 14 54  1  0  0  0  0
 15 14  2  0  0  0  0
 16 15  1  0  0  0  0
 16 22  2  0  0  0  0
 17 19  2  0  0  0  0
 17 16  1  0  0  0  0
 18 17  1  0  0  0  0
 18 55  1  0  0  0  0
 18 56  1  0  0  0  0
 19 20  1  0  0  0  0
 20 21  2  0  0  0  0
 20 57  1  0  0  0  0
 22 21  1  0  0  0  0
 22 13  1  0  0  0  0
 24 26  2  6  0  0  0
 24 23  1  0  0  0  0
 25 24  1  0  0  0  0
 25 58  1  0  0  0  0
 27 24  1  0  0  0  0
 27 28  1  0  0  0  0
 28 59  1  0  0  0  0
 28 60  1  0  0  0  0
 29 31  1  1  0  0  0
 29 28  1  0  0  0  0
 29 61  1  0  0  0  0
 30 29  1  0  0  0  0
 31 62  1  0  0  0  0
 31 33  1  6  0  0  0
 32 31  1  0  0  0  0
 32 63  1  0  0  0  0
 33 64  1  0  0  0  0
 33 35  1  6  0  0  0
 34 33  1  0  0  0  0
 34 65  1  0  0  0  0
 35 30  1  0  0  0  0
 35 66  1  6  0  0  0
 36 35  1  0  0  0  0
 37 36  1  0  0  0  0
 37 67  1  0  0  0  0
 38 39  1  0  0  0  0
 38 37  2  0  0  0  0
 39 41  1  0  0  0  0
 40 39  2  0  0  0  0
 41 68  1  0  0  0  0
 41 69  1  0  0  0  0
 42 43  1  0  0  0  0
 42 38  1  0  0  0  0
 42 70  1  0  0  0  0
 42 73  1  0  0  0  0
 43 44  2  0  0  0  0
 43 71  1  0  0  0  0
 44 36  1  0  0  0  0
 44 72  1  0  0  0  0
M  END
