
 OpenBabel01051521583D

 78 82  0  0  1  0  0  0  0  0999 V2000
   14.7290   13.7550   92.9090 P   0  0  2  0  0  0  0  0  0  0  0  0
   15.6870   14.5890   92.1210 O   0  0  0  0  0  0  0  0  0  0  0  0
   13.6970   14.4990   93.6890 O   0  0  0  0  0  0  0  0  0  0  0  0
   15.6210   12.7470   93.7930 O   0  0  0  0  0  0  0  0  0  0  0  0
   17.0040   12.7100   93.5940 C   0  0  0  0  0  0  0  0  0  0  0  0
   17.5630   12.4510   94.9630 C   0  0  1  0  0  0  0  0  0  0  0  0
   18.9330   12.1700   94.8590 O   0  0  0  0  0  0  0  0  0  0  0  0
   17.3960   13.6620   95.8520 C   0  0  1  0  0  0  0  0  0  0  0  0
   17.0970   13.2000   97.1500 O   0  0  0  0  0  0  0  0  0  0  0  0
   18.7470   14.3420   95.7890 C   0  0  1  0  0  0  0  0  0  0  0  0
   18.9620   14.9990   97.0250 O   0  0  0  0  0  0  0  0  0  0  0  0
   19.6820   13.1480   95.5420 C   0  0  2  0  0  0  0  0  0  0  0  0
   20.9110   13.4780   94.8140 N   0  0  0  0  0  0  0  0  0  0  0  0
   21.0350   14.1270   93.6150 C   0  0  0  0  0  0  0  0  0  0  0  0
   22.3560   14.2290   93.3420 N   0  0  0  0  0  0  0  0  0  0  0  0
   23.0630   13.6590   94.3300 C   0  0  0  0  0  0  0  0  0  0  0  0
   24.4170   13.5200   94.5400 C   0  0  0  0  0  0  0  0  0  0  0  0
   25.2880   13.9860   93.6450 N   0  0  0  0  0  0  0  0  0  0  0  0
   24.8570   12.8930   95.6830 N   0  0  0  0  0  0  0  0  0  0  0  0
   23.9530   12.4050   96.6030 C   0  0  0  0  0  0  0  0  0  0  0  0
   22.6040   12.5550   96.3990 N   0  0  0  0  0  0  0  0  0  0  0  0
   22.1700   13.1780   95.2680 C   0  0  0  0  0  0  0  0  0  0  0  0
   13.9690   12.7270   91.9220 O   0  0  0  0  0  0  0  0  0  0  0  0
   13.0960   11.4140   92.2560 P   0  0  1  0  0  0  0  0  0  0  0  0
   13.1080   11.2090   93.7280 O   0  0  0  0  0  0  0  0  0  0  0  0
   11.7560   11.5210   91.5940 O   0  0  0  0  0  0  0  0  0  0  0  0
   14.0270   10.3250   91.5470 O   0  0  0  0  0  0  0  0  0  0  0  0
   14.7940    9.4330   92.3430 C   0  0  0  0  0  0  0  0  0  0  0  0
   15.2130    8.2130   91.5350 C   0  0  1  0  0  0  0  0  0  0  0  0
   14.0850    7.6670   90.9040 O   0  0  0  0  0  0  0  0  0  0  0  0
   16.1890    8.5160   90.4180 C   0  0  1  0  0  0  0  0  0  0  0  0
   17.0900    7.4300   90.3500 O   0  0  0  0  0  0  0  0  0  0  0  0
   15.3490    8.5960   89.1610 C   0  0  1  0  0  0  0  0  0  0  0  0
   16.0550    8.3260   87.9490 O   0  0  0  0  0  0  0  0  0  0  0  0
   14.3120    7.5540   89.5030 C   0  0  2  0  0  0  0  0  0  0  0  0
   13.0780    7.7240   88.6990 N   0  0  0  0  0  0  0  0  0  0  0  0
   12.0520    8.5500   89.0860 C   0  0  0  0  0  0  0  0  0  0  0  0
   10.9280    8.6490   88.2710 C   0  0  0  0  0  0  0  0  0  0  0  0
    9.8080    9.5790   88.6220 C   0  0  0  0  0  0  0  0  0  0  0  0
    8.6740    9.5710   87.7910 O   0  0  0  0  0  0  0  0  0  0  0  0
    9.9070   10.3840   89.6800 N   0  0  0  0  0  0  0  0  0  0  0  0
   10.8480    7.9220   87.0830 C   0  0  0  0  0  0  0  0  0  0  0  0
   11.8940    7.1000   86.7130 C   0  0  0  0  0  0  0  0  0  0  0  0
   13.0120    7.0170   87.5290 C   0  0  0  0  0  0  0  0  0  0  0  0
   19.9860   16.2150   97.1990 P   0  0  0  0  0  0  0  0  0  0  0  0
   19.8910   16.6370   98.6320 O   0  0  0  0  0  0  0  0  0  0  0  0
   19.5770   17.3260   96.2900 O   0  0  0  0  0  0  0  0  0  0  0  0
   21.4040   15.7980   96.8910 O   0  0  0  0  0  0  0  0  0  0  0  0
   13.1309   13.8680   94.1604 H   0  0  0  0  0  0  0  0  0  0  0  0
   17.3577   13.6438   93.2095 H   0  0  0  0  0  0  0  0  0  0  0  0
   17.2972   11.9663   92.8828 H   0  0  0  0  0  0  0  0  0  0  0  0
   17.0345   11.6237   95.3887 H   0  0  0  0  0  0  0  0  0  0  0  0
   16.6143   14.3338   95.5645 H   0  0  0  0  0  0  0  0  0  0  0  0
   17.7889   12.5862   97.4421 H   0  0  0  0  0  0  0  0  0  0  0  0
   18.8779   15.0972   95.0424 H   0  0  0  0  0  0  0  0  0  0  0  0
   20.0305   12.7927   96.4892 H   0  0  0  0  0  0  0  0  0  0  0  0
   20.2618   14.4750   93.0267 H   0  0  0  0  0  0  0  0  0  0  0  0
   24.9644   14.4333   92.8299 H   0  0  0  0  0  0  0  0  0  0  0  0
   26.2549   13.8828   93.7991 H   0  0  0  0  0  0  0  0  0  0  0  0
   24.2930   11.9239   97.4503 H   0  0  0  0  0  0  0  0  0  0  0  0
   14.0251   11.1555   94.0395 H   0  0  0  0  0  0  0  0  0  0  0  0
   14.2068    9.1154   93.1792 H   0  0  0  0  0  0  0  0  0  0  0  0
   15.6737    9.9417   92.6780 H   0  0  0  0  0  0  0  0  0  0  0  0
   15.6791    7.5560   92.2393 H   0  0  0  0  0  0  0  0  0  0  0  0
   16.7436    9.4204   90.5568 H   0  0  0  0  0  0  0  0  0  0  0  0
   16.5941    6.6059   90.2241 H   0  0  0  0  0  0  0  0  0  0  0  0
   14.9698    9.5725   88.9428 H   0  0  0  0  0  0  0  0  0  0  0  0
   16.4638    7.4479   88.0017 H   0  0  0  0  0  0  0  0  0  0  0  0
   14.6517    6.5681   89.2632 H   0  0  0  0  0  0  0  0  0  0  0  0
   12.1130    9.0875   89.9648 H   0  0  0  0  0  0  0  0  0  0  0  0
   10.7162   10.3631   90.2404 H   0  0  0  0  0  0  0  0  0  0  0  0
    9.1709   10.9994   89.9009 H   0  0  0  0  0  0  0  0  0  0  0  0
   10.7164    8.6316   86.2931 H   0  0  0  0  0  0  0  0  0  0  0  0
   10.0448    7.2382   87.2625 H   0  0  0  0  0  0  0  0  0  0  0  0
   11.8442    6.5536   85.8390 H   0  0  0  0  0  0  0  0  0  0  0  0
   13.8031    6.4154   87.2510 H   0  0  0  0  0  0  0  0  0  0  0  0
   18.9801   16.9050   98.8304 H   0  0  0  0  0  0  0  0  0  0  0  0
   21.6648   15.0761   97.4841 H   0  0  0  0  0  0  0  0  0  0  0  0
  1 23  1  0  0  0  0
  1  3  1  0  0  0  0
  1  4  1  0  0  0  0
  1  2  2  6  0  0  0
  3 49  1  0  0  0  0
  5  4  1  0  0  0  0
  5 50  1  0  0  0  0
  5 51  1  0  0  0  0
  6  5  1  0  0  0  0
  6  8  1  1  0  0  0
  6 52  1  0  0  0  0
  7  6  1  0  0  0  0
  7 12  1  0  0  0  0
  8  9  1  0  0  0  0
  8 10  1  1  0  0  0
  8 53  1  0  0  0  0
  9 54  1  0  0  0  0
 10 11  1  0  0  0  0
 10 12  1  6  0  0  0
 10 55  1  0  0  0  0
 11 45  1  0  0  0  0
 12 13  1  0  0  0  0
 12 56  1  1  0  0  0
 13 22  1  0  0  0  0
 14 13  1  0  0  0  0
 14 57  1  0  0  0  0
 15 14  2  0  0  0  0
 15 16  1  0  0  0  0
 16 17  2  0  0  0  0
 16 22  1  0  0  0  0
 17 19  1  0  0  0  0
 18 17  1  0  0  0  0
 18 58  1  0  0  0  0
 18 59  1  0  0  0  0
 19 20  2  0  0  0  0
 20 60  1  0  0  0  0
 21 20  1  0  0  0  0
 22 21  2  0  0  0  0
 23 24  1  0  0  0  0
 24 27  1  0  0  0  0
 24 25  1  0  0  0  0
 24 26  2  6  0  0  0
 25 61  1  0  0  0  0
 27 28  1  0  0  0  0
 28 62  1  0  0  0  0
 28 63  1  0  0  0  0
 29 28  1  0  0  0  0
 29 31  1  6  0  0  0
 29 64  1  0  0  0  0
 30 29  1  0  0  0  0
 31 32  1  0  0  0  0
 31 33  1  6  0  0  0
 31 65  1  0  0  0  0
 32 66  1  0  0  0  0
 33 34  1  0  0  0  0
 33 35  1  1  0  0  0
 33 67  1  0  0  0  0
 34 68  1  0  0  0  0
 35 36  1  0  0  0  0
 35 30  1  0  0  0  0
 35 69  1  6  0  0  0
 36 37  1  0  0  0  0
 37 70  1  0  0  0  0
 38 39  1  0  0  0  0
 38 37  2  0  0  0  0
 39 41  1  0  0  0  0
 40 39  2  0  0  0  0
 41 71  1  0  0  0  0
 41 72  1  0  0  0  0
 42 38  1  0  0  0  0
 42 73  1  0  0  0  0
 42 74  1  0  0  0  0
 43 42  1  0  0  0  0
 43 44  2  0  0  0  0
 43 75  1  0  0  0  0
 44 36  1  0  0  0  0
 44 76  1  0  0  0  0
 45 46  1  0  0  0  0
 46 77  1  0  0  0  0
 47 45  2  0  0  0  0
 48 45  1  0  0  0  0
 48 78  1  0  0  0  0
M  END
