1o2d.pdb
 OpenBabel03151520153D

 77 81  0  0  1  0  0  0  0  0999 V2000
   14.6050   48.1930   36.9540 P   0  0  1  0  0  0  0  0  0  0  0  0
   14.7050   46.9620   36.1050 O   0  0  0  0  0  0  0  0  0  0  0  0
   15.6550   48.3720   37.9900 O   0  0  0  0  0  0  0  0  0  0  0  0
   14.5220   49.5300   36.0580 O   0  0  0  0  0  0  0  0  0  0  0  0
   13.4810   49.7340   35.1220 C   0  0  0  0  0  0  0  0  0  0  0  0
   13.6970   51.0580   34.4170 C   0  0  1  0  0  0  0  0  0  0  0  0
   13.3890   52.1230   35.3220 O   0  0  0  0  0  0  0  0  0  0  0  0
   15.1250   51.3190   33.9420 C   0  0  1  0  0  0  0  0  0  0  0  0
   15.0630   51.7490   32.6060 O   0  0  0  0  0  0  0  0  0  0  0  0
   15.6630   52.4140   34.8520 C   0  0  1  0  0  0  0  0  0  0  0  0
   16.5330   53.3390   34.2410 O   0  0  0  0  0  0  0  0  0  0  0  0
   14.3860   53.1210   35.2040 C   0  0  2  0  0  0  0  0  0  0  0  0
   14.3490   53.8250   36.5000 N   0  0  0  0  0  0  0  0  0  0  0  0
   14.7230   53.3360   37.7190 C   0  0  0  0  0  0  0  0  0  0  0  0
   14.4420   54.2800   38.6550 N   0  0  0  0  0  0  0  0  0  0  0  0
   13.8600   55.3370   38.0280 C   0  0  0  0  0  0  0  0  0  0  0  0
   13.4050   56.5770   38.5010 C   0  0  0  0  0  0  0  0  0  0  0  0
   13.2930   56.8830   39.8120 N   0  0  0  0  0  0  0  0  0  0  0  0
   12.9080   57.4550   37.5680 N   0  0  0  0  0  0  0  0  0  0  0  0
   12.8880   57.1820   36.2220 C   0  0  0  0  0  0  0  0  0  0  0  0
   13.3070   55.9620   35.7640 N   0  0  0  0  0  0  0  0  0  0  0  0
   13.8220   55.0740   36.6640 C   0  0  0  0  0  0  0  0  0  0  0  0
   13.0840   48.2410   37.5400 O   0  0  0  0  0  0  0  0  0  0  0  0
   12.4550   47.5650   38.8530 P   0  0  1  0  0  0  0  0  0  0  0  0
   12.7050   48.4700   39.9880 O   0  0  0  0  0  0  0  0  0  0  0  0
   11.0700   47.2620   38.4780 O   0  0  0  0  0  0  0  0  0  0  0  0
   13.2790   46.2230   39.0520 O   0  0  0  0  0  0  0  0  0  0  0  0
   12.9800   45.0880   38.2560 C   0  0  0  0  0  0  0  0  0  0  0  0
   13.9870   43.9960   38.5480 C   0  0  1  0  0  0  0  0  0  0  0  0
   13.8740   43.6280   39.9090 O   0  0  0  0  0  0  0  0  0  0  0  0
   13.7140   42.7310   37.7230 C   0  0  1  0  0  0  0  0  0  0  0  0
   14.9240   42.1310   37.2840 O   0  0  0  0  0  0  0  0  0  0  0  0
   12.9910   41.8540   38.7150 C   0  0  1  0  0  0  0  0  0  0  0  0
   13.0340   40.4470   38.4650 O   0  0  0  0  0  0  0  0  0  0  0  0
   13.6780   42.2270   40.0220 C   0  0  2  0  0  0  0  0  0  0  0  0
   12.9560   41.8620   41.2690 N   0  0  0  0  0  0  0  0  0  0  0  0
   13.7010   41.5270   42.3650 C   0  0  0  0  0  0  0  0  0  0  0  0
   13.0960   41.1140   43.5500 C   0  0  0  0  0  0  0  0  0  0  0  0
   13.9260   40.8930   44.7760 C   0  0  0  0  0  0  0  0  0  0  0  0
   13.3830   40.5190   46.0030 O   0  0  0  0  0  0  0  0  0  0  0  0
   15.2280   41.0980   44.7220 N   0  0  0  0  0  0  0  0  0  0  0  0
   11.6980   41.1040   43.6360 C   0  0  0  0  0  0  0  0  0  0  0  0
   10.9400   41.4930   42.5240 C   0  0  0  0  0  0  0  0  0  0  0  0
   11.5930   41.8190   41.3400 C   0  0  0  0  0  0  0  0  0  0  0  0
   18.1170   53.1690   34.3970 P   0  0  0  0  0  0  0  0  0  0  0  0
   18.4940   51.8110   33.9310 O   0  0  0  0  0  0  0  0  0  0  0  0
   18.6550   54.2860   33.4980 O   0  0  0  0  0  0  0  0  0  0  0  0
   18.4660   53.3760   35.8800 O   0  0  0  0  0  0  0  0  0  0  0  0
   16.5302   48.3327   37.5735 H   0  0  0  0  0  0  0  0  0  0  0  0
   13.4853   48.9411   34.4035 H   0  0  0  0  0  0  0  0  0  0  0  0
   12.5389   49.7463   35.6292 H   0  0  0  0  0  0  0  0  0  0  0  0
   13.0646   51.0126   33.5551 H   0  0  0  0  0  0  0  0  0  0  0  0
   15.7565   50.4563   33.9845 H   0  0  0  0  0  0  0  0  0  0  0  0
   14.4941   52.5322   32.5445 H   0  0  0  0  0  0  0  0  0  0  0  0
   16.2494   52.0063   35.6488 H   0  0  0  0  0  0  0  0  0  0  0  0
   14.2584   53.8569   34.4378 H   0  0  0  0  0  0  0  0  0  0  0  0
   15.1451   52.4114   37.8979 H   0  0  0  0  0  0  0  0  0  0  0  0
   12.9671   57.7712   40.0841 H   0  0  0  0  0  0  0  0  0  0  0  0
   13.5373   56.2178   40.4954 H   0  0  0  0  0  0  0  0  0  0  0  0
   12.5569   57.8971   35.5556 H   0  0  0  0  0  0  0  0  0  0  0  0
   12.2009   49.2896   39.8651 H   0  0  0  0  0  0  0  0  0  0  0  0
   11.9956   44.7381   38.4871 H   0  0  0  0  0  0  0  0  0  0  0  0
   13.0270   45.3528   37.2203 H   0  0  0  0  0  0  0  0  0  0  0  0
   14.9566   44.3774   38.3045 H   0  0  0  0  0  0  0  0  0  0  0  0
   13.1574   42.9125   36.8274 H   0  0  0  0  0  0  0  0  0  0  0  0
   15.4852   41.9363   38.0509 H   0  0  0  0  0  0  0  0  0  0  0  0
   11.9355   42.0275   38.6867 H   0  0  0  0  0  0  0  0  0  0  0  0
   13.9564   40.1470   38.4631 H   0  0  0  0  0  0  0  0  0  0  0  0
   14.5816   41.6650   40.1339 H   0  0  0  0  0  0  0  0  0  0  0  0
   14.7303   41.5810   42.3137 H   0  0  0  0  0  0  0  0  0  0  0  0
   15.6497   41.3636   43.8730 H   0  0  0  0  0  0  0  0  0  0  0  0
   15.7780   40.9854   45.5307 H   0  0  0  0  0  0  0  0  0  0  0  0
   11.4072   40.1029   43.8772 H   0  0  0  0  0  0  0  0  0  0  0  0
    9.9106   41.5371   42.5825 H   0  0  0  0  0  0  0  0  0  0  0  0
   11.0360   42.0328   40.4979 H   0  0  0  0  0  0  0  0  0  0  0  0
   18.2608   51.7142   32.9944 H   0  0  0  0  0  0  0  0  0  0  0  0
   19.4231   53.2782   36.0036 H   0  0  0  0  0  0  0  0  0  0  0  0
  1  4  1  6  0  0  0
  1 23  1  0  0  0  0
  1  3  1  0  0  0  0
  2  1  2  0  0  0  0
  3 49  1  0  0  0  0
  5  4  1  0  0  0  0
  5 50  1  0  0  0  0
  5 51  1  0  0  0  0
  6  5  1  0  0  0  0
  6  7  1  0  0  0  0
  6 52  1  6  0  0  0
  8  6  1  0  0  0  0
  8 10  1  0  0  0  0
  8 53  1  1  0  0  0
  9  8  1  0  0  0  0
  9 54  1  0  0  0  0
 10 12  1  0  0  0  0
 10 55  1  1  0  0  0
 11 45  1  0  0  0  0
 11 10  1  0  0  0  0
 12  7  1  0  0  0  0
 12 13  1  0  0  0  0
 12 56  1  6  0  0  0
 13 22  1  0  0  0  0
 13 14  1  0  0  0  0
 14 15  2  0  0  0  0
 14 57  1  0  0  0  0
 16 17  1  0  0  0  0
 16 15  1  0  0  0  0
 17 18  1  0  0  0  0
 18 58  1  0  0  0  0
 18 59  1  0  0  0  0
 19 17  2  0  0  0  0
 20 19  1  0  0  0  0
 20 60  1  0  0  0  0
 21 20  2  0  0  0  0
 21 22  1  0  0  0  0
 22 16  2  0  0  0  0
 24 23  1  6  0  0  0
 24 27  1  0  0  0  0
 24 25  1  0  0  0  0
 25 61  1  0  0  0  0
 26 24  2  0  0  0  0
 28 29  1  0  0  0  0
 28 27  1  0  0  0  0
 28 62  1  0  0  0  0
 28 63  1  0  0  0  0
 29 30  1  0  0  0  0
 29 64  1  6  0  0  0
 30 35  1  0  0  0  0
 31 29  1  0  0  0  0
 31 33  1  0  0  0  0
 31 65  1  6  0  0  0
 32 31  1  0  0  0  0
 32 66  1  0  0  0  0
 33 35  1  0  0  0  0
 33 67  1  1  0  0  0
 34 33  1  0  0  0  0
 34 68  1  0  0  0  0
 35 36  1  0  0  0  0
 35 69  1  1  0  0  0
 36 44  1  0  0  0  0
 36 37  1  0  0  0  0
 37 38  2  0  0  0  0
 37 70  1  0  0  0  0
 38 42  1  0  0  0  0
 38 39  1  0  0  0  0
 39 40  2  0  0  0  0
 41 39  1  0  0  0  0
 41 71  1  0  0  0  0
 41 72  1  0  0  0  0
 42 73  1  0  0  0  0
 43 42  1  0  0  0  0
 43 74  1  0  0  0  0
 44 43  2  0  0  0  0
 44 75  1  0  0  0  0
 45 48  1  0  0  0  0
 46 45  1  0  0  0  0
 46 76  1  0  0  0  0
 47 45  2  0  0  0  0
 48 77  1  0  0  0  0
M  END
