2zb4.pdb
 OpenBabel03151520153D

 77 81  0  0  1  0  0  0  0  0999 V2000
   11.3620   31.3500   61.6760 P   0  0  2  0  0  0  0  0  0  0  0  0
   11.9530   30.0750   61.2460 O   0  0  0  0  0  0  0  0  0  0  0  0
   11.3520   31.7480   63.0910 O   0  0  0  0  0  0  0  0  0  0  0  0
    9.9230   31.1780   61.0560 O   0  0  0  0  0  0  0  0  0  0  0  0
    9.0060   32.2590   61.3800 C   0  0  0  0  0  0  0  0  0  0  0  0
    8.2050   31.7390   62.7420 C   0  0  1  0  0  0  0  0  0  0  0  0
    7.4960   32.9200   63.2850 O   0  0  0  0  0  0  0  0  0  0  0  0
    7.0220   30.6690   62.4920 C   0  0  1  0  0  0  0  0  0  0  0  0
    7.4330   29.4160   62.4140 O   0  0  0  0  0  0  0  0  0  0  0  0
    6.0530   31.0620   63.7290 C   0  0  1  0  0  0  0  0  0  0  0  0
    6.3100   30.1650   64.7700 O   0  0  0  0  0  0  0  0  0  0  0  0
    6.4660   32.5270   64.1140 C   0  0  2  0  0  0  0  0  0  0  0  0
    5.3500   33.4680   63.9180 N   0  0  0  0  0  0  0  0  0  0  0  0
    4.7370   33.7680   62.7500 C   0  0  0  0  0  0  0  0  0  0  0  0
    3.7220   34.6840   62.8530 N   0  0  0  0  0  0  0  0  0  0  0  0
    3.7440   34.9150   64.1400 C   0  0  0  0  0  0  0  0  0  0  0  0
    2.9310   35.8160   65.0470 C   0  0  0  0  0  0  0  0  0  0  0  0
    1.9000   36.6080   64.4560 N   0  0  0  0  0  0  0  0  0  0  0  0
    3.2330   35.7950   66.3590 N   0  0  0  0  0  0  0  0  0  0  0  0
    4.1160   35.1530   67.0240 C   0  0  0  0  0  0  0  0  0  0  0  0
    4.9530   34.2810   66.2040 N   0  0  0  0  0  0  0  0  0  0  0  0
    4.7550   34.2000   64.9600 C   0  0  0  0  0  0  0  0  0  0  0  0
   11.9850   32.5080   60.6960 O   0  0  0  0  0  0  0  0  0  0  0  0
   13.5290   33.0870   60.9300 P   0  0  1  0  0  0  0  0  0  0  0  0
   14.0480   32.4000   62.0390 O   0  0  0  0  0  0  0  0  0  0  0  0
   14.0100   33.0720   59.6300 O   0  0  0  0  0  0  0  0  0  0  0  0
   13.2450   34.6920   61.2840 O   0  0  0  0  0  0  0  0  0  0  0  0
   12.8060   34.8340   62.6860 C   0  0  0  0  0  0  0  0  0  0  0  0
   12.6560   36.3680   62.8160 C   0  0  1  0  0  0  0  0  0  0  0  0
   14.1980   36.8940   62.6560 O   0  0  0  0  0  0  0  0  0  0  0  0
   11.9240   37.1750   61.7950 C   0  0  1  0  0  0  0  0  0  0  0  0
   11.3020   38.2670   62.6020 O   0  0  0  0  0  0  0  0  0  0  0  0
   13.0240   37.7380   60.7460 C   0  0  1  0  0  0  0  0  0  0  0  0
   12.5220   38.8730   60.1310 O   0  0  0  0  0  0  0  0  0  0  0  0
   14.1720   37.9390   61.7000 C   0  0  2  0  0  0  0  0  0  0  0  0
   15.4960   37.9610   61.0290 N   0  0  0  0  0  0  0  0  0  0  0  0
   16.2850   39.1910   61.2680 C   0  0  0  0  0  0  0  0  0  0  0  0
   17.4950   39.2770   60.6860 C   0  0  0  0  0  0  0  0  0  0  0  0
   18.3570   40.4780   60.8860 C   0  0  0  0  0  0  0  0  0  0  0  0
   19.3530   40.6790   60.2110 O   0  0  0  0  0  0  0  0  0  0  0  0
   17.9490   41.1990   61.9340 N   0  0  0  0  0  0  0  0  0  0  0  0
   17.9710   38.2410   59.8860 C   0  0  0  0  0  0  0  0  0  0  0  0
   17.1780   37.0280   59.6630 C   0  0  0  0  0  0  0  0  0  0  0  0
   15.9110   36.9010   60.2520 C   0  0  0  0  0  0  0  0  0  0  0  0
    5.2780   29.9980   66.0280 P   0  0  0  0  0  0  0  0  0  0  0  0
    6.1130   29.9770   67.2310 O   0  0  0  0  0  0  0  0  0  0  0  0
    4.2800   31.1660   65.8980 O   0  0  0  0  0  0  0  0  0  0  0  0
    4.6310   28.6780   65.8030 O   0  0  0  0  0  0  0  0  0  0  0  0
   10.9232   32.6135   63.1804 H   0  0  0  0  0  0  0  0  0  0  0  0
    8.3179   32.4235   60.5773 H   0  0  0  0  0  0  0  0  0  0  0  0
    9.5142   33.1872   61.5387 H   0  0  0  0  0  0  0  0  0  0  0  0
    8.9493   31.2827   63.3607 H   0  0  0  0  0  0  0  0  0  0  0  0
    6.5300   30.7167   61.5430 H   0  0  0  0  0  0  0  0  0  0  0  0
    7.9197   29.1846   63.2205 H   0  0  0  0  0  0  0  0  0  0  0  0
    5.0083   31.0132   63.5029 H   0  0  0  0  0  0  0  0  0  0  0  0
    6.7543   32.5368   65.1444 H   0  0  0  0  0  0  0  0  0  0  0  0
    5.0118   33.3408   61.8517 H   0  0  0  0  0  0  0  0  0  0  0  0
    1.7424   36.5659   63.4851 H   0  0  0  0  0  0  0  0  0  0  0  0
    1.3469   37.1960   65.0195 H   0  0  0  0  0  0  0  0  0  0  0  0
    4.2272   35.2426   68.0461 H   0  0  0  0  0  0  0  0  0  0  0  0
   14.2018   31.4722   61.8016 H   0  0  0  0  0  0  0  0  0  0  0  0
   13.5413   34.4554   63.3649 H   0  0  0  0  0  0  0  0  0  0  0  0
   11.9144   34.2899   62.9184 H   0  0  0  0  0  0  0  0  0  0  0  0
   12.0877   36.5026   63.7126 H   0  0  0  0  0  0  0  0  0  0  0  0
   11.1855   36.6469   61.2287 H   0  0  0  0  0  0  0  0  0  0  0  0
   11.9904   38.7296   63.1051 H   0  0  0  0  0  0  0  0  0  0  0  0
   13.3029   37.1323   59.9092 H   0  0  0  0  0  0  0  0  0  0  0  0
   12.2325   39.5057   60.8068 H   0  0  0  0  0  0  0  0  0  0  0  0
   14.0072   38.8923   62.1570 H   0  0  0  0  0  0  0  0  0  0  0  0
   15.9202   39.9542   61.8592 H   0  0  0  0  0  0  0  0  0  0  0  0
   18.4289   42.0220   62.1821 H   0  0  0  0  0  0  0  0  0  0  0  0
   17.1684   40.9073   62.4582 H   0  0  0  0  0  0  0  0  0  0  0  0
   18.1565   38.6638   58.9207 H   0  0  0  0  0  0  0  0  0  0  0  0
   17.5516   36.2681   59.0731 H   0  0  0  0  0  0  0  0  0  0  0  0
   15.3245   36.0635   60.1118 H   0  0  0  0  0  0  0  0  0  0  0  0
    6.6978   29.2035   67.2052 H   0  0  0  0  0  0  0  0  0  0  0  0
    3.7847   31.0773   65.0687 H   0  0  0  0  0  0  0  0  0  0  0  0
  1 23  1  6  0  0  0
  1  3  1  0  0  0  0
  2  1  2  0  0  0  0
  3 49  1  0  0  0  0
  4  5  1  0  0  0  0
  4  1  1  0  0  0  0
  5  6  1  0  0  0  0
  5 50  1  0  0  0  0
  5 51  1  0  0  0  0
  6  7  1  0  0  0  0
  6 52  1  1  0  0  0
  7 12  1  0  0  0  0
  8  6  1  0  0  0  0
  8 10  1  0  0  0  0
  8 53  1  6  0  0  0
  9  8  1  0  0  0  0
  9 54  1  0  0  0  0
 10 12  1  0  0  0  0
 10 11  1  0  0  0  0
 10 55  1  6  0  0  0
 11 45  1  0  0  0  0
 12 56  1  1  0  0  0
 13 12  1  0  0  0  0
 13 22  1  0  0  0  0
 14 15  2  0  0  0  0
 14 13  1  0  0  0  0
 14 57  1  0  0  0  0
 15 16  1  0  0  0  0
 16 22  2  0  0  0  0
 16 17  1  0  0  0  0
 17 19  2  0  0  0  0
 18 17  1  0  0  0  0
 18 58  1  0  0  0  0
 18 59  1  0  0  0  0
 19 20  1  0  0  0  0
 20 60  1  0  0  0  0
 21 20  2  0  0  0  0
 22 21  1  0  0  0  0
 23 24  1  0  0  0  0
 24 26  2  6  0  0  0
 24 27  1  0  0  0  0
 24 25  1  0  0  0  0
 25 61  1  0  0  0  0
 27 28  1  0  0  0  0
 28 29  1  0  0  0  0
 28 62  1  0  0  0  0
 28 63  1  0  0  0  0
 29 64  1  1  0  0  0
 30 29  1  0  0  0  0
 31 32  1  0  0  0  0
 31 29  1  0  0  0  0
 31 65  1  6  0  0  0
 32 66  1  0  0  0  0
 33 35  1  0  0  0  0
 33 31  1  0  0  0  0
 33 67  1  6  0  0  0
 34 33  1  0  0  0  0
 34 68  1  0  0  0  0
 35 30  1  0  0  0  0
 35 69  1  1  0  0  0
 36 37  1  0  0  0  0
 36 35  1  0  0  0  0
 37 70  1  0  0  0  0
 38 39  1  0  0  0  0
 38 37  2  0  0  0  0
 39 41  1  0  0  0  0
 40 39  2  0  0  0  0
 41 71  1  0  0  0  0
 41 72  1  0  0  0  0
 42 38  1  0  0  0  0
 42 73  1  0  0  0  0
 43 42  1  0  0  0  0
 43 44  2  0  0  0  0
 43 74  1  0  0  0  0
 44 36  1  0  0  0  0
 44 75  1  0  0  0  0
 45 46  1  0  0  0  0
 46 76  1  0  0  0  0
 47 45  1  0  0  0  0
 47 77  1  0  0  0  0
 48 45  2  0  0  0  0
M  END
