3oet.pdb
 OpenBabel03151520153D

 72 76  0  0  1  0  0  0  0  0999 V2000
   24.5810   45.0750   10.3330 P   0  0  2  0  0  0  0  0  0  0  0  0
   26.0160   44.7810   10.5250 O   0  0  0  0  0  0  0  0  0  0  0  0
   24.2530   45.2290    8.9000 O   0  0  0  0  0  0  0  0  0  0  0  0
   24.2680   46.5010   11.0120 O   0  0  0  0  0  0  0  0  0  0  0  0
   24.5880   46.8810   12.3270 C   0  0  0  0  0  0  0  0  0  0  0  0
   24.7090   48.3950   12.3040 C   0  0  1  0  0  0  0  0  0  0  0  0
   24.8210   48.8970   13.6310 O   0  0  0  0  0  0  0  0  0  0  0  0
   25.9600   48.8550   11.5500 C   0  0  1  0  0  0  0  0  0  0  0  0
   25.5710   49.8790   10.6670 O   0  0  0  0  0  0  0  0  0  0  0  0
   26.8250   49.4720   12.6280 C   0  0  1  0  0  0  0  0  0  0  0  0
   27.5170   50.6030   12.1610 O   0  0  0  0  0  0  0  0  0  0  0  0
   25.7880   49.9070   13.6410 C   0  0  2  0  0  0  0  0  0  0  0  0
   26.3680   50.1290   14.9590 N   0  0  0  0  0  0  0  0  0  0  0  0
   27.5080   49.5650   15.4700 C   0  0  0  0  0  0  0  0  0  0  0  0
   27.7050   50.0550   16.7120 N   0  0  0  0  0  0  0  0  0  0  0  0
   26.7130   50.9340   17.0070 C   0  0  0  0  0  0  0  0  0  0  0  0
   26.4490   51.7310   18.1280 C   0  0  0  0  0  0  0  0  0  0  0  0
   27.1560   51.5740   19.2590 N   0  0  0  0  0  0  0  0  0  0  0  0
   25.3290   52.5500   18.1290 N   0  0  0  0  0  0  0  0  0  0  0  0
   24.5130   52.5760   17.0220 C   0  0  0  0  0  0  0  0  0  0  0  0
   24.7850   51.8010   15.9110 N   0  0  0  0  0  0  0  0  0  0  0  0
   25.8680   50.9890   15.9070 C   0  0  0  0  0  0  0  0  0  0  0  0
   23.7040   43.9210   10.9640 O   0  0  0  0  0  0  0  0  0  0  0  0
   22.1290   43.7440   10.7090 P   0  0  2  0  0  0  0  0  0  0  0  0
   21.9660   42.6210    9.7710 O   0  0  0  0  0  0  0  0  0  0  0  0
   21.4860   45.0620   10.4530 O   0  0  0  0  0  0  0  0  0  0  0  0
   21.6560   43.1520   12.1260 O   0  0  0  0  0  0  0  0  0  0  0  0
   21.5210   43.9820   13.2540 C   0  0  0  0  0  0  0  0  0  0  0  0
   21.5830   43.1680   14.5460 C   0  0  1  0  0  0  0  0  0  0  0  0
   20.4570   42.3170   14.6280 O   0  0  0  0  0  0  0  0  0  0  0  0
   22.7960   42.2550   14.6510 C   0  0  1  0  0  0  0  0  0  0  0  0
   23.1440   42.1700   16.0090 O   0  0  0  0  0  0  0  0  0  0  0  0
   22.2630   40.9080   14.2180 C   0  0  1  0  0  0  0  0  0  0  0  0
   23.0140   39.8310   14.6910 O   0  0  0  0  0  0  0  0  0  0  0  0
   20.8660   40.9560   14.8140 C   0  0  2  0  0  0  0  0  0  0  0  0
   19.9340   40.0160   14.1460 N   0  0  0  0  0  0  0  0  0  0  0  0
   19.1410   39.2100   14.9210 C   0  0  0  0  0  0  0  0  0  0  0  0
   18.2310   38.3320   14.3200 C   0  0  1  0  0  0  0  0  0  0  0  0
   17.0420   37.8270   15.1210 C   0  0  0  0  0  0  0  0  0  0  0  0
   16.4700   36.5830   14.7750 O   0  0  0  0  0  0  0  0  0  0  0  0
   16.5470   38.5530   16.1220 N   0  0  0  0  0  0  0  0  0  0  0  0
   18.1530   38.2860   12.9190 C   0  0  0  0  0  0  0  0  0  0  0  0
   18.9460   39.1420   12.1500 C   0  0  0  0  0  0  0  0  0  0  0  0
   19.8460   40.0050   12.7690 C   0  0  0  0  0  0  0  0  0  0  0  0
   26.2271   43.9241   10.1225 H   0  0  0  0  0  0  0  0  0  0  0  0
   25.5144   46.4379   12.6276 H   0  0  0  0  0  0  0  0  0  0  0  0
   23.8424   46.5566   13.0225 H   0  0  0  0  0  0  0  0  0  0  0  0
   23.8320   48.7643   11.8148 H   0  0  0  0  0  0  0  0  0  0  0  0
   26.4493   48.0721   11.0091 H   0  0  0  0  0  0  0  0  0  0  0  0
   25.1286   50.5843   11.1647 H   0  0  0  0  0  0  0  0  0  0  0  0
   27.5737   48.8017   12.9954 H   0  0  0  0  0  0  0  0  0  0  0  0
   26.8828   51.2495   11.8135 H   0  0  0  0  0  0  0  0  0  0  0  0
   25.3558   50.8529   13.3893 H   0  0  0  0  0  0  0  0  0  0  0  0
   28.1126   48.8821   14.9873 H   0  0  0  0  0  0  0  0  0  0  0  0
   27.9518   50.9944   19.2656 H   0  0  0  0  0  0  0  0  0  0  0  0
   26.8785   52.0385   20.0815 H   0  0  0  0  0  0  0  0  0  0  0  0
   23.6810   53.1866   17.0213 H   0  0  0  0  0  0  0  0  0  0  0  0
   21.7817   45.4048    9.5951 H   0  0  0  0  0  0  0  0  0  0  0  0
   20.5797   44.4884   13.2047 H   0  0  0  0  0  0  0  0  0  0  0  0
   22.3268   44.6860   13.2566 H   0  0  0  0  0  0  0  0  0  0  0  0
   21.6265   43.8968   15.3283 H   0  0  0  0  0  0  0  0  0  0  0  0
   23.6388   42.5835   14.0795 H   0  0  0  0  0  0  0  0  0  0  0  0
   22.3763   41.8719   16.5215 H   0  0  0  0  0  0  0  0  0  0  0  0
   22.2928   40.7512   13.1600 H   0  0  0  0  0  0  0  0  0  0  0  0
   23.0578   39.8678   15.6593 H   0  0  0  0  0  0  0  0  0  0  0  0
   20.8603   40.6560   15.8411 H   0  0  0  0  0  0  0  0  0  0  0  0
   18.5721   39.8563   15.5563 H   0  0  0  0  0  0  0  0  0  0  0  0
   16.9563   39.4184   16.3517 H   0  0  0  0  0  0  0  0  0  0  0  0
   15.7718   38.2242   16.6321 H   0  0  0  0  0  0  0  0  0  0  0  0
   18.4029   37.2872   12.6276 H   0  0  0  0  0  0  0  0  0  0  0  0
   18.8643   39.1344   11.1213 H   0  0  0  0  0  0  0  0  0  0  0  0
   20.4414   40.6303   12.2037 H   0  0  0  0  0  0  0  0  0  0  0  0
  1  3  2  6  0  0  0
  1  2  1  0  0  0  0
  1 23  1  0  0  0  0
  1  4  1  0  0  0  0
  2 45  1  0  0  0  0
  4  5  1  0  0  0  0
  5 46  1  0  0  0  0
  5 47  1  0  0  0  0
  6  5  1  0  0  0  0
  6  7  1  0  0  0  0
  6 48  1  6  0  0  0
  7 12  1  0  0  0  0
  8  6  1  0  0  0  0
  8 10  1  0  0  0  0
  8 49  1  6  0  0  0
  9  8  1  0  0  0  0
  9 50  1  0  0  0  0
 10 12  1  0  0  0  0
 10 51  1  1  0  0  0
 11 10  1  0  0  0  0
 11 52  1  0  0  0  0
 12 13  1  0  0  0  0
 12 53  1  6  0  0  0
 13 14  1  0  0  0  0
 13 22  1  0  0  0  0
 14 15  2  0  0  0  0
 14 54  1  0  0  0  0
 15 16  1  0  0  0  0
 16 17  2  0  0  0  0
 17 19  1  0  0  0  0
 17 18  1  0  0  0  0
 18 55  1  0  0  0  0
 18 56  1  0  0  0  0
 20 19  2  0  0  0  0
 20 57  1  0  0  0  0
 21 20  1  0  0  0  0
 22 21  2  0  0  0  0
 22 16  1  0  0  0  0
 24 25  2  6  0  0  0
 24 23  1  0  0  0  0
 24 27  1  0  0  0  0
 26 24  1  0  0  0  0
 26 58  1  0  0  0  0
 27 28  1  0  0  0  0
 28 29  1  0  0  0  0
 28 59  1  0  0  0  0
 28 60  1  0  0  0  0
 29 30  1  0  0  0  0
 29 31  1  0  0  0  0
 29 61  1  1  0  0  0
 30 35  1  0  0  0  0
 31 32  1  0  0  0  0
 31 62  1  6  0  0  0
 32 63  1  0  0  0  0
 33 31  1  0  0  0  0
 33 34  1  0  0  0  0
 33 35  1  0  0  0  0
 33 64  1  6  0  0  0
 34 65  1  0  0  0  0
 35 66  1  1  0  0  0
 36 35  1  0  0  0  0
 36 37  1  0  0  0  0
 37 67  1  0  0  0  0
 38 37  1  0  0  0  0
 38 39  1  1  0  0  0
 39 41  1  0  0  0  0
 40 39  2  0  0  0  0
 41 68  1  0  0  0  0
 41 69  1  0  0  0  0
 42 38  1  0  0  0  0
 42 70  1  0  0  0  0
 43 44  2  0  0  0  0
 43 42  1  0  0  0  0
 43 71  1  0  0  0  0
 44 36  1  0  0  0  0
 44 72  1  0  0  0  0
M  END
