4bmv.pdb
 OpenBabel03151520153D

 77 81  0  0  1  0  0  0  0  0999 V2000
   26.5190  -15.2320   87.1320 P   0  0  1  0  0  0  0  0  0  0  0  0
   27.4040  -16.4360   87.3090 O   0  0  0  0  0  0  0  0  0  0  0  0
   27.0880  -14.1220   86.2630 O   0  0  0  0  0  0  0  0  0  0  0  0
   25.1430  -15.7580   86.5500 O   0  0  0  0  0  0  0  0  0  0  0  0
   24.3800  -14.7410   85.9010 C   0  0  0  0  0  0  0  0  0  0  0  0
   23.4950  -15.4690   84.9520 C   0  0  1  0  0  0  0  0  0  0  0  0
   22.6440  -14.5310   84.2970 O   0  0  0  0  0  0  0  0  0  0  0  0
   24.3260  -16.1690   83.9240 C   0  0  1  0  0  0  0  0  0  0  0  0
   23.7130  -17.4380   83.8310 O   0  0  0  0  0  0  0  0  0  0  0  0
   24.1560  -15.3340   82.6570 C   0  0  1  0  0  0  0  0  0  0  0  0
   24.3360  -16.0970   81.4330 O   0  0  0  0  0  0  0  0  0  0  0  0
   22.7330  -14.6600   82.9010 C   0  0  2  0  0  0  0  0  0  0  0  0
   22.6830  -13.3620   82.1650 N   0  0  0  0  0  0  0  0  0  0  0  0
   23.5530  -12.3420   82.2170 C   0  0  0  0  0  0  0  0  0  0  0  0
   23.2160  -11.3870   81.3270 N   0  0  0  0  0  0  0  0  0  0  0  0
   22.1070  -11.8210   80.6810 C   0  0  0  0  0  0  0  0  0  0  0  0
   21.2070  -11.3340   79.6260 C   0  0  0  0  0  0  0  0  0  0  0  0
   21.4530  -10.1310   79.0230 N   0  0  0  0  0  0  0  0  0  0  0  0
   20.1460  -12.1110   79.2680 N   0  0  0  0  0  0  0  0  0  0  0  0
   19.8750  -13.2740   79.8220 C   0  0  0  0  0  0  0  0  0  0  0  0
   20.6850  -13.7390   80.7620 N   0  0  0  0  0  0  0  0  0  0  0  0
   21.7840  -13.1070   81.2120 C   0  0  0  0  0  0  0  0  0  0  0  0
   26.2150  -14.3880   88.4820 O   0  0  0  0  0  0  0  0  0  0  0  0
   25.3020  -14.7880   89.7330 P   0  0  2  0  0  0  0  0  0  0  0  0
   25.9150  -14.3570   91.0490 O   0  0  0  0  0  0  0  0  0  0  0  0
   24.7640  -16.1620   89.6390 O   0  0  0  0  0  0  0  0  0  0  0  0
   24.0730  -13.8570   89.4130 O   0  0  0  0  0  0  0  0  0  0  0  0
   22.7750  -14.3340   89.8270 C   0  0  0  0  0  0  0  0  0  0  0  0
   21.9420  -13.3010   90.5890 C   0  0  1  0  0  0  0  0  0  0  0  0
   22.4730  -13.2120   91.8670 O   0  0  0  0  0  0  0  0  0  0  0  0
   21.9910  -11.8920   90.0340 C   0  0  1  0  0  0  0  0  0  0  0  0
   20.6770  -11.4420   89.8850 O   0  0  0  0  0  0  0  0  0  0  0  0
   22.7610  -11.1080   91.0560 C   0  0  1  0  0  0  0  0  0  0  0  0
   22.3890   -9.7130   91.1700 O   0  0  0  0  0  0  0  0  0  0  0  0
   22.4480  -11.8740   92.3100 C   0  0  2  0  0  0  0  0  0  0  0  0
   23.4100  -11.7780   93.4460 N   0  0  0  0  0  0  0  0  0  0  0  0
   24.6280  -12.2800   93.3450 C   0  0  0  0  0  0  0  0  0  0  0  0
   25.5030  -12.2700   94.4020 C   0  0  0  0  0  0  0  0  0  0  0  0
   26.8560  -12.7670   94.1790 C   0  0  0  0  0  0  0  0  0  0  0  0
   27.0350  -13.6370   93.3300 O   0  0  0  0  0  0  0  0  0  0  0  0
   27.7920  -12.1770   94.8610 N   0  0  0  0  0  0  0  0  0  0  0  0
   25.1290  -11.7740   95.6150 C   0  0  0  0  0  0  0  0  0  0  0  0
   23.8400  -11.2810   95.7260 C   0  0  0  0  0  0  0  0  0  0  0  0
   22.9920  -11.3260   94.6210 C   0  0  0  0  0  0  0  0  0  0  0  0
   24.7920  -15.4460   80.0550 P   0  0  0  0  0  0  0  0  0  0  0  0
   25.2920  -16.5750   79.1790 O   0  0  0  0  0  0  0  0  0  0  0  0
   23.6240  -14.6310   79.5610 O   0  0  0  0  0  0  0  0  0  0  0  0
   25.8720  -14.4910   80.3730 O   0  0  0  0  0  0  0  0  0  0  0  0
   27.5286  -16.8744   86.4527 H   0  0  0  0  0  0  0  0  0  0  0  0
   23.7983  -14.1948   86.6139 H   0  0  0  0  0  0  0  0  0  0  0  0
   25.0030  -14.0279   85.4027 H   0  0  0  0  0  0  0  0  0  0  0  0
   22.9104  -16.1862   85.4894 H   0  0  0  0  0  0  0  0  0  0  0  0
   25.3717  -16.2795   84.1219 H   0  0  0  0  0  0  0  0  0  0  0  0
   22.7662  -17.3273   83.6516 H   0  0  0  0  0  0  0  0  0  0  0  0
   24.9092  -14.5913   82.4958 H   0  0  0  0  0  0  0  0  0  0  0  0
   21.8994  -15.2235   82.5370 H   0  0  0  0  0  0  0  0  0  0  0  0
   24.3667  -12.2950   82.8500 H   0  0  0  0  0  0  0  0  0  0  0  0
   20.8516   -9.8026   78.3161 H   0  0  0  0  0  0  0  0  0  0  0  0
   22.2314   -9.5936   79.2960 H   0  0  0  0  0  0  0  0  0  0  0  0
   19.0459  -13.8143   79.5293 H   0  0  0  0  0  0  0  0  0  0  0  0
   26.2267  -13.4413   90.9760 H   0  0  0  0  0  0  0  0  0  0  0  0
   22.9163  -15.1847   90.4604 H   0  0  0  0  0  0  0  0  0  0  0  0
   22.2338  -14.5680   88.9341 H   0  0  0  0  0  0  0  0  0  0  0  0
   20.9283  -13.6380   90.5285 H   0  0  0  0  0  0  0  0  0  0  0  0
   22.4594  -11.8051   89.0759 H   0  0  0  0  0  0  0  0  0  0  0  0
   20.2153  -11.5048   90.7358 H   0  0  0  0  0  0  0  0  0  0  0  0
   23.7996  -11.0347   90.8093 H   0  0  0  0  0  0  0  0  0  0  0  0
   21.4480   -9.6467   91.3959 H   0  0  0  0  0  0  0  0  0  0  0  0
   21.5382  -11.4823   92.7146 H   0  0  0  0  0  0  0  0  0  0  0  0
   24.9293  -12.6905   92.4474 H   0  0  0  0  0  0  0  0  0  0  0  0
   28.7289  -12.4619   94.7597 H   0  0  0  0  0  0  0  0  0  0  0  0
   27.5641  -11.4452   95.4789 H   0  0  0  0  0  0  0  0  0  0  0  0
   25.8006  -10.9773   95.8581 H   0  0  0  0  0  0  0  0  0  0  0  0
   23.5100  -10.8836   96.6194 H   0  0  0  0  0  0  0  0  0  0  0  0
   22.0176  -11.0006   94.7190 H   0  0  0  0  0  0  0  0  0  0  0  0
   23.8559  -14.2119   78.7175 H   0  0  0  0  0  0  0  0  0  0  0  0
   26.1812  -14.0689   79.5562 H   0  0  0  0  0  0  0  0  0  0  0  0
  1  3  2  6  0  0  0
  1  2  1  0  0  0  0
  1 23  1  0  0  0  0
  2 49  1  0  0  0  0
  4  1  1  0  0  0  0
  5  4  1  0  0  0  0
  5 50  1  0  0  0  0
  5 51  1  0  0  0  0
  6  5  1  0  0  0  0
  6 52  1  1  0  0  0
  7  6  1  0  0  0  0
  8  6  1  0  0  0  0
  8 53  1  1  0  0  0
  9  8  1  0  0  0  0
  9 54  1  0  0  0  0
 10 12  1  0  0  0  0
 10  8  1  0  0  0  0
 10 55  1  1  0  0  0
 11 10  1  0  0  0  0
 12  7  1  0  0  0  0
 12 56  1  6  0  0  0
 13 14  1  0  0  0  0
 13 12  1  0  0  0  0
 14 57  1  0  0  0  0
 15 14  2  0  0  0  0
 16 22  2  0  0  0  0
 16 15  1  0  0  0  0
 17 16  1  0  0  0  0
 18 17  1  0  0  0  0
 18 58  1  0  0  0  0
 18 59  1  0  0  0  0
 19 17  2  0  0  0  0
 19 20  1  0  0  0  0
 20 21  2  0  0  0  0
 20 60  1  0  0  0  0
 21 22  1  0  0  0  0
 22 13  1  0  0  0  0
 24 23  1  6  0  0  0
 24 25  1  0  0  0  0
 25 61  1  0  0  0  0
 26 24  2  0  0  0  0
 27 24  1  0  0  0  0
 27 28  1  0  0  0  0
 28 29  1  0  0  0  0
 28 62  1  0  0  0  0
 28 63  1  0  0  0  0
 29 30  1  0  0  0  0
 29 64  1  1  0  0  0
 30 35  1  0  0  0  0
 31 29  1  0  0  0  0
 31 33  1  0  0  0  0
 31 65  1  6  0  0  0
 32 31  1  0  0  0  0
 32 66  1  0  0  0  0
 33 34  1  0  0  0  0
 33 35  1  0  0  0  0
 33 67  1  6  0  0  0
 34 68  1  0  0  0  0
 35 36  1  0  0  0  0
 35 69  1  1  0  0  0
 36 44  1  0  0  0  0
 37 36  1  0  0  0  0
 37 38  2  0  0  0  0
 37 70  1  0  0  0  0
 38 42  1  0  0  0  0
 39 38  1  0  0  0  0
 39 41  1  0  0  0  0
 40 39  2  0  0  0  0
 41 71  1  0  0  0  0
 41 72  1  0  0  0  0
 42 43  1  0  0  0  0
 42 73  1  0  0  0  0
 43 74  1  0  0  0  0
 44 43  2  0  0  0  0
 44 75  1  0  0  0  0
 45 48  1  0  0  0  0
 45 11  1  0  0  0  0
 46 45  2  0  0  0  0
 47 45  1  0  0  0  0
 47 76  1  0  0  0  0
 48 77  1  0  0  0  0
M  END
