
 OpenBabel01051521313D

 78 82  0  0  1  0  0  0  0  0999 V2000
   14.4180   -1.5500   61.0150 P   0  0  1  0  0  0  0  0  0  0  0  0
   13.4660   -0.9630   62.0380 O   0  0  0  0  0  0  0  0  0  0  0  0
   15.6480   -2.2520   61.5390 O   0  0  0  0  0  0  0  0  0  0  0  0
   13.6570   -2.4490   59.8980 O   0  0  0  0  0  0  0  0  0  0  0  0
   13.9100   -3.8340   59.7620 C   0  0  0  0  0  0  0  0  0  0  0  0
   12.6000   -4.4420   59.3620 C   0  0  1  0  0  0  0  0  0  0  0  0
   12.8890   -5.7750   59.0050 O   0  0  0  0  0  0  0  0  0  0  0  0
   11.6500   -4.4650   60.5580 C   0  0  1  0  0  0  0  0  0  0  0  0
   10.2880   -4.2510   60.1350 O   0  0  0  0  0  0  0  0  0  0  0  0
   11.8440   -5.8540   61.1460 C   0  0  1  0  0  0  0  0  0  0  0  0
   10.7030   -6.3110   61.9190 O   0  0  0  0  0  0  0  0  0  0  0  0
   12.0430   -6.5730   59.8170 C   0  0  2  0  0  0  0  0  0  0  0  0
   12.5530   -7.9490   59.9280 N   0  0  0  0  0  0  0  0  0  0  0  0
   13.7720   -8.4100   60.3010 C   0  0  0  0  0  0  0  0  0  0  0  0
   13.7950   -9.7770   60.2510 N   0  0  0  0  0  0  0  0  0  0  0  0
   12.5770  -10.1640   59.8350 C   0  0  0  0  0  0  0  0  0  0  0  0
   11.9030  -11.4260   59.5550 C   0  0  0  0  0  0  0  0  0  0  0  0
   12.5460  -12.5870   59.7110 N   0  0  0  0  0  0  0  0  0  0  0  0
   10.6210  -11.3690   59.1280 N   0  0  0  0  0  0  0  0  0  0  0  0
    9.9260  -10.2130   58.9680 C   0  0  0  0  0  0  0  0  0  0  0  0
   10.4760   -9.0200   59.2110 N   0  0  0  0  0  0  0  0  0  0  0  0
   11.7640   -8.9580   59.6240 C   0  0  0  0  0  0  0  0  0  0  0  0
   14.7530   -0.3480   59.9820 O   0  0  0  0  0  0  0  0  0  0  0  0
   15.6540   -0.5440   58.6740 P   0  0  2  0  0  0  0  0  0  0  0  0
   16.3810   -1.8400   58.8360 O   0  0  0  0  0  0  0  0  0  0  0  0
   16.4540    0.7270   58.5520 O   0  0  0  0  0  0  0  0  0  0  0  0
   14.6450   -0.8360   57.4510 O   0  0  0  0  0  0  0  0  0  0  0  0
   14.6600   -2.1400   56.7910 C   0  0  0  0  0  0  0  0  0  0  0  0
   15.6680   -2.4480   55.6340 C   0  0  1  0  0  0  0  0  0  0  0  0
   16.4610   -1.3440   55.1470 O   0  0  0  0  0  0  0  0  0  0  0  0
   16.6950   -3.5550   55.9690 C   0  0  1  0  0  0  0  0  0  0  0  0
   16.6990   -4.6340   55.0170 O   0  0  0  0  0  0  0  0  0  0  0  0
   18.0510   -2.9180   55.8730 C   0  0  1  0  0  0  0  0  0  0  0  0
   18.9920   -3.9000   55.4330 O   0  0  0  0  0  0  0  0  0  0  0  0
   17.7920   -1.8170   54.8570 C   0  0  2  0  0  0  0  0  0  0  0  0
   18.8560   -0.7960   54.8820 N   0  0  0  0  0  0  0  0  0  0  0  0
   19.0170    0.0740   55.9100 C   0  0  0  0  0  0  0  0  0  0  0  0
   20.0600    1.0230   55.8790 C   0  0  0  0  0  0  0  0  0  0  0  0
   20.3180    2.0390   56.9820 C   0  0  0  0  0  0  0  0  0  0  0  0
   21.4040    2.6270   57.0560 O   0  0  0  0  0  0  0  0  0  0  0  0
   19.3670    2.3160   57.8760 N   0  0  0  0  0  0  0  0  0  0  0  0
   20.9120    1.0210   54.7780 C   0  0  0  0  0  0  0  0  0  0  0  0
   20.7150    0.1140   53.7650 C   0  0  0  0  0  0  0  0  0  0  0  0
   19.6780   -0.7820   53.8360 C   0  0  0  0  0  0  0  0  0  0  0  0
   10.6640   -7.5160   63.0210 P   0  0  0  0  0  0  0  0  0  0  0  0
   10.6160   -8.8520   62.3020 O   0  0  0  0  0  0  0  0  0  0  0  0
   11.9070   -7.2510   63.8690 O   0  0  0  0  0  0  0  0  0  0  0  0
    9.3120   -7.3020   63.6740 O   0  0  0  0  0  0  0  0  0  0  0  0
   12.7207   -0.5419   61.5818 H   0  0  0  0  0  0  0  0  0  0  0  0
   14.6487   -4.0070   59.0075 H   0  0  0  0  0  0  0  0  0  0  0  0
   14.2855   -4.2602   60.6688 H   0  0  0  0  0  0  0  0  0  0  0  0
   12.1441   -3.8888   58.5676 H   0  0  0  0  0  0  0  0  0  0  0  0
   11.8511   -3.6914   61.2694 H   0  0  0  0  0  0  0  0  0  0  0  0
   10.0420   -4.9261   59.4834 H   0  0  0  0  0  0  0  0  0  0  0  0
   12.6229   -5.9802   61.8687 H   0  0  0  0  0  0  0  0  0  0  0  0
   11.0774   -6.6911   59.3714 H   0  0  0  0  0  0  0  0  0  0  0  0
   14.5676   -7.8158   60.5820 H   0  0  0  0  0  0  0  0  0  0  0  0
   12.0840  -13.4351   59.5199 H   0  0  0  0  0  0  0  0  0  0  0  0
   13.4817  -12.5942   60.0171 H   0  0  0  0  0  0  0  0  0  0  0  0
    8.9453  -10.2575   58.6497 H   0  0  0  0  0  0  0  0  0  0  0  0
   16.9410   -1.9959   58.0595 H   0  0  0  0  0  0  0  0  0  0  0  0
   14.8441   -2.8655   57.5556 H   0  0  0  0  0  0  0  0  0  0  0  0
   13.7147   -2.1603   56.2902 H   0  0  0  0  0  0  0  0  0  0  0  0
   14.9726   -2.7482   54.8782 H   0  0  0  0  0  0  0  0  0  0  0  0
   16.4479   -3.9533   56.9309 H   0  0  0  0  0  0  0  0  0  0  0  0
   16.9217   -4.2890   54.1382 H   0  0  0  0  0  0  0  0  0  0  0  0
   18.4646   -2.5325   56.7814 H   0  0  0  0  0  0  0  0  0  0  0  0
   18.6810   -4.2976   54.6047 H   0  0  0  0  0  0  0  0  0  0  0  0
   17.8277   -2.1559   53.8427 H   0  0  0  0  0  0  0  0  0  0  0  0
   18.3746    0.0415   56.7171 H   0  0  0  0  0  0  0  0  0  0  0  0
   18.4981    1.8556   57.8290 H   0  0  0  0  0  0  0  0  0  0  0  0
   19.5343    2.9808   58.5826 H   0  0  0  0  0  0  0  0  0  0  0  0
   20.8526    1.9947   54.3383 H   0  0  0  0  0  0  0  0  0  0  0  0
   21.3476    0.1065   52.9497 H   0  0  0  0  0  0  0  0  0  0  0  0
   19.5337   -1.4547   53.0668 H   0  0  0  0  0  0  0  0  0  0  0  0
   12.7018   -7.4230   63.3402 H   0  0  0  0  0  0  0  0  0  0  0  0
    8.6094   -7.5024   63.0359 H   0  0  0  0  0  0  0  0  0  0  0  0
   21.8540    0.7291   55.1932 H   0  0  0  0  0  0  0  0  0  0  0  0
  1  4  1  0  0  0  0
  1  3  2  1  0  0  0
  1  2  1  0  0  0  0
  2 49  1  0  0  0  0
  5  4  1  0  0  0  0
  5 50  1  0  0  0  0
  5 51  1  0  0  0  0
  6  5  1  0  0  0  0
  6  8  1  1  0  0  0
  6 52  1  0  0  0  0
  7  6  1  0  0  0  0
  7 12  1  0  0  0  0
  8 10  1  1  0  0  0
  8 53  1  0  0  0  0
  9  8  1  0  0  0  0
  9 54  1  0  0  0  0
 10 11  1  0  0  0  0
 10 55  1  0  0  0  0
 10 12  1  6  0  0  0
 11 45  1  0  0  0  0
 12 13  1  0  0  0  0
 12 56  1  6  0  0  0
 13 14  1  0  0  0  0
 14 57  1  0  0  0  0
 15 14  2  0  0  0  0
 16 15  1  0  0  0  0
 17 18  1  0  0  0  0
 17 16  2  0  0  0  0
 18 58  1  0  0  0  0
 18 59  1  0  0  0  0
 19 17  1  0  0  0  0
 20 19  2  0  0  0  0
 20 21  1  0  0  0  0
 20 60  1  0  0  0  0
 21 22  2  0  0  0  0
 22 16  1  0  0  0  0
 22 13  1  0  0  0  0
 23  1  1  0  0  0  0
 24 27  1  0  0  0  0
 24 25  1  0  0  0  0
 24 23  1  0  0  0  0
 24 26  2  6  0  0  0
 25 61  1  0  0  0  0
 28 27  1  0  0  0  0
 28 62  1  0  0  0  0
 28 63  1  0  0  0  0
 29 31  1  1  0  0  0
 29 28  1  0  0  0  0
 29 64  1  0  0  0  0
 30 29  1  0  0  0  0
 31 65  1  0  0  0  0
 31 33  1  1  0  0  0
 32 31  1  0  0  0  0
 32 66  1  0  0  0  0
 33 67  1  0  0  0  0
 33 35  1  6  0  0  0
 34 33  1  0  0  0  0
 34 68  1  0  0  0  0
 35 36  1  0  0  0  0
 35 30  1  0  0  0  0
 35 69  1  6  0  0  0
 36 37  1  0  0  0  0
 37 70  1  0  0  0  0
 38 37  2  0  0  0  0
 38 39  1  0  0  0  0
 39 40  2  0  0  0  0
 39 41  1  0  0  0  0
 41 71  1  0  0  0  0
 41 72  1  0  0  0  0
 42 38  1  0  0  0  0
 42 73  1  0  0  0  0
 42 78  1  0  0  0  0
 43 44  2  0  0  0  0
 43 42  1  0  0  0  0
 43 74  1  0  0  0  0
 44 36  1  0  0  0  0
 44 75  1  0  0  0  0
 45 48  1  0  0  0  0
 45 47  1  0  0  0  0
 46 45  2  0  0  0  0
 47 76  1  0  0  0  0
 48 77  1  0  0  0  0
M  END
